geometry optimzed in LAMMPS
_audit_creation_date              2020-11-30 
_audit_creation_method            'lammps2cif' 
_symmetry_space_group_name_H-M    'P1' 
_symmetry_Int_Tables_number       1 
_symmetry_cell_setting            triclinic 
loop_ 
_symmetry_equiv_pos_as_xyz 
  x,y,z 
_cell_length_a                    36.20269233037308 
_cell_length_b                    10.409468145876984 
_cell_length_c                    72.96533479106505 
_cell_angle_alpha                 89.97908113977383 
_cell_angle_beta                  89.99313195798888 
_cell_angle_gamma                 89.99904896262797 
loop_ 
_atom_site_label 
_atom_site_type_symbol 
_atom_site_fract_x 
_atom_site_fract_y 
_atom_site_fract_z 
_atom_site_charge 
O1          O  0.68542172  0.13515270  0.18553751    -0.71280
O2          O  0.79096139  0.08285066  0.18476265    -0.71320
O3          O  0.73798760  0.12551772  0.15916455    -0.71370
O4          O  0.73859516  0.10105076  0.21114419    -0.71420
O5          O  0.72975179  0.38908811  0.20953507    -0.71350
O6          O  0.72909867  0.41396606  0.15675775    -0.71330
O7          O  0.78137751  0.37147929  0.18273045    -0.71310
O8          O  0.67744469  0.92294463  0.18351789    -0.71370
Ni9        Ni  0.73858540  0.11875957  0.18521407     1.25410
Ni10       Ni  0.72914847  0.39172632  0.18305687     1.25360
C11         C  0.66431813  0.03618687  0.18467131     0.90890
C12         C  0.80320015  0.46732820  0.18368295     0.90830
C13         C  0.73323294  0.02522511  0.14943466     0.90850
C14         C  0.73410811  0.49245197  0.21888834     0.91030
O15         O  0.78149115  0.34533881  0.30795896    -0.71280
O16         O  0.67598130  0.39820596  0.30862537    -0.71320
O17         O  0.72851782  0.38097878  0.28231472    -0.71370
O18         O  0.72872918  0.35401932  0.33426667    -0.71420
O19         O  0.73765396  0.56542308  0.33689444    -0.71350
O20         O  0.73748117  0.09279704  0.28413782    -0.71330
O21         O  0.68563735  0.10943808  0.31086019    -0.71310
O22         O  0.78956329  0.55738485  0.31021861    -0.71370
Ni23       Ni  0.72833880  0.36202816  0.30822341     1.25410
Ni24       Ni  0.73786406  0.08890101  0.31061584     1.25360
C25         C  0.80263917  0.44413308  0.30893640     0.90890
C26         C  0.66378162  0.01373350  0.30979484     0.90830
C27         C  0.73313033  0.48989294  0.27468071     0.90850
C28         C  0.73335444  0.45387031  0.34410338     0.91030
O29         O  0.03091545  0.21754024  0.18552588    -0.71280
O30         O  0.92547544  0.27211420  0.18488974    -0.71320
O31         O  0.97813089  0.22697469  0.15923468    -0.71370
O32         O  0.97803030  0.25414226  0.21118722    -0.71420
O33         O  0.98728590  0.46579829  0.20931868    -0.71350
O34         O  0.98732246  0.43822860  0.15656548    -0.71330
O35         O  0.93540899  0.48318403  0.18261741    -0.71310
O36         O  0.03926100  0.42944623  0.18321731    -0.71370
Ni37       Ni  0.97778462  0.23509069  0.18527915     1.25410
Ni38       Ni  0.98760736  0.46179735  0.18284029     1.25360
C39         C  0.05219022  0.31599905  0.18452237     0.90890
C40         C  0.91342798  0.38783112  0.18370022     0.90830
C41         C  0.98287075  0.32671903  0.14937740     0.90850
C42         C  0.98283269  0.36299885  0.21879889     0.91030
O43         O  0.93592820  0.51038668  0.30791164    -0.71280
O44         O  0.04137569  0.45599264  0.30863981    -0.71320
O45         O  0.98896598  0.47472923  0.28228302    -0.71370
O46         O  0.98854210  0.50019031  0.33425522    -0.71420
O47         O  0.97932601  0.28885666  0.33677045    -0.71350
O48         O  0.97976420  0.26298466  0.28400241    -0.71330
O49         O  0.03146013  0.24484398  0.31077491    -0.71310
O50         O  0.92760619  0.29838119  0.31004775    -0.71370
Ni51       Ni  0.98906151  0.49292911  0.30820643     1.25410
Ni52       Ni  0.97925938  0.26612872  0.31048115     1.25360
C53         C  0.91466458  0.41186083  0.30883965     0.90890
C54         C  0.05343336  0.34026009  0.30977055     0.90830
C55         C  0.98424255  0.36609417  0.27459441     0.90850
C56         C  0.98365561  0.40016919  0.34403779     0.91030
O57         O  0.53119520  0.96757754  0.18558821    -0.71280
O58         O  0.42562921  0.01925559  0.18495199    -0.71320
O59         O  0.47837678  0.97532400  0.15929926    -0.71370
O60         O  0.47823541  0.00295148  0.21124695    -0.71420
O61         O  0.48701518  0.21483357  0.20933918    -0.71350
O62         O  0.48709137  0.18679664  0.15659235    -0.71330
O63         O  0.43509629  0.23056184  0.18264062    -0.71310
O64         O  0.53906325  0.17968034  0.18323996    -0.71370
Ni65       Ni  0.47802380  0.98366253  0.18534272     1.25410
Ni66       Ni  0.48733776  0.21060564  0.18286220     1.25360
C67         C  0.55224834  0.06660394  0.18456561     0.90890
C68         C  0.41332656  0.13463803  0.18374261     0.90830
C69         C  0.48288037  0.07511336  0.14942402     0.90850
C70         C  0.48279249  0.11200370  0.21883818     0.91030
O71         O  0.43562753  0.25919368  0.30792315    -0.71280
O72         O  0.54118606  0.20742780  0.30863699    -0.71320
O73         O  0.48870978  0.22455647  0.28229223    -0.71370
O74         O  0.48829169  0.25061237  0.33425832    -0.71420
O75         O  0.47951167  0.03908663  0.33682498    -0.71350
O76         O  0.47993858  0.01261358  0.28406419    -0.71330
O77         O  0.53169883  0.99606928  0.31082434    -0.71310
O78         O  0.42773556  0.04701900  0.31011396    -0.71370
Ni79       Ni  0.48879570  0.24306182  0.30821056     1.25410
Ni80       Ni  0.47945623  0.01605426  0.31054163     1.25360
C81         C  0.41456352  0.16016125  0.30887530     0.90890
C82         C  0.55347828  0.09200487  0.30978864     0.90830
C83         C  0.48420070  0.11571866  0.27463092     0.90850
C84         C  0.48363032  0.15057974  0.34406555     0.91030
O85         O  0.18539413  0.38208584  0.18554247    -0.71280
O86         O  0.29088208  0.32874186  0.18480283    -0.71320
O87         O  0.23799510  0.37227522  0.15919138    -0.71370
O88         O  0.23848480  0.34709663  0.21116277    -0.71420
O89         O  0.22947118  0.13524256  0.20949369    -0.71350
O90         O  0.22893699  0.16084563  0.15672120    -0.71330
O91         O  0.28114156  0.11748689  0.18270818    -0.71310
O92         O  0.17723733  0.16998847  0.18346094    -0.71370
Ni93       Ni  0.23853921  0.36515576  0.18523870     1.25410
Ni94       Ni  0.22892095  0.13824601  0.18301504     1.25360
C95         C  0.16420691  0.28335694  0.18464058     0.90890
C96         C  0.30303608  0.21312516  0.18369909     0.90830
C97         C  0.23317182  0.27216775  0.14943122     0.90850
C98         C  0.23389491  0.23844331  0.21887616     0.91030
O99         O  0.28135923  0.09212229  0.30799045    -0.71280
O100        O  0.17584109  0.14498841  0.30866819    -0.71320
O101        O  0.22834377  0.12725856  0.28234592    -0.71370
O102        O  0.22862903  0.10128281  0.33430880    -0.71420
O103        O  0.23756115  0.31273310  0.33685310    -0.71350
O104        O  0.23730013  0.33911378  0.28408675    -0.71330
O105        O  0.18550733  0.35625652  0.31082222    -0.71310
O106        O  0.28942089  0.30421753  0.31016282    -0.71370
Ni107      Ni  0.22820193  0.10879972  0.30826288     1.25410
Ni108      Ni  0.23772712  0.33571819  0.31056578     1.25360
C109        C  0.30250236  0.19095284  0.30892758     0.90890
C110        C  0.16364787  0.26054605  0.30979890     0.90830
C111        C  0.23293550  0.23603745  0.27466944     0.90850
C112        C  0.23327696  0.20131287  0.34410574     0.91030
O113        O  0.27982996  0.33997277  0.80798565    -0.71280
O114        O  0.17427030  0.39174517  0.80868976    -0.71320
O115        O  0.22673997  0.37419006  0.78234807    -0.71370
O116        O  0.22714974  0.34897565  0.83432124    -0.71420
O117        O  0.23591976  0.56054750  0.83679689    -0.71350
O118        O  0.23550899  0.08616359  0.78402601    -0.71330
O119        O  0.18375848  0.10313984  0.81078247    -0.71310
O120        O  0.28771941  0.55218137  0.81008546    -0.71370
Ni121      Ni  0.22666076  0.35610303  0.80827242     1.25410
Ni122      Ni  0.23599762  0.58315052  0.81050421     1.25360
C123        C  0.30089298  0.43902361  0.80889076     0.90890
C124        C  0.16197931  0.00718832  0.80979349     0.90830
C125        C  0.23121945  0.48291540  0.77463920     0.90850
C126        C  0.23176381  0.44918584  0.84408508     0.91030
O127        O  0.18367675  0.12983414  0.68557247    -0.71280
O128        O  0.28922285  0.57778297  0.68487048    -0.71320
O129        O  0.23638507  0.12145700  0.65924700    -0.71370
O130        O  0.23672490  0.09471843  0.71120197    -0.71420
O131        O  0.22790845  0.38281824  0.70939945    -0.71350
O132        O  0.22756902  0.40998542  0.65664111    -0.71330
O133        O  0.27969173  0.36647617  0.68264902    -0.71310
O134        O  0.17573828  0.41771157  0.68334375    -0.71370
Ni135      Ni  0.23684115  0.11355963  0.68529073     1.25410
Ni136      Ni  0.22745454  0.38660548  0.68292160     1.25360
C137        C  0.16259090  0.03087218  0.68460509     0.90890
C138        C  0.30149064  0.46233963  0.68370624     0.90830
C139        C  0.23175573  0.02155469  0.64942124     0.90850
C140        C  0.23220936  0.48579165  0.71884670     0.91030
O141        O  0.43409295  0.50710622  0.80792906    -0.71280
O142        O  0.53961344  0.45432693  0.80861767    -0.71320
O143        O  0.48710450  0.47160753  0.78229164    -0.71370
O144        O  0.48680634  0.49838952  0.83424779    -0.71420
O145        O  0.47787740  0.28697768  0.83687950    -0.71350
O146        O  0.47815928  0.25977603  0.78412346    -0.71330
O147        O  0.52996089  0.24308729  0.81086310    -0.71310
O148        O  0.42604221  0.29503826  0.81018914    -0.71370
Ni149      Ni  0.48725034  0.49046790  0.80820282     1.25410
Ni150      Ni  0.47773666  0.26358157  0.81060149     1.25360
C151        C  0.41295511  0.40827751  0.80891147     0.90890
C152        C  0.55181479  0.33879797  0.80979485     0.90830
C153        C  0.48249083  0.36271814  0.77466122     0.90850
C154        C  0.48211720  0.39852618  0.84408640     0.91030
O155        O  0.52950068  0.21556789  0.68555436    -0.71280
O156        O  0.42398735  0.26839142  0.68488282    -0.71320
O157        O  0.47678567  0.22469745  0.65923994    -0.71370
O158        O  0.47649719  0.25072231  0.71120568    -0.71420
O159        O  0.48545062  0.46257432  0.70943427    -0.71350
O160        O  0.48571746  0.43614642  0.65667201    -0.71330
O161        O  0.43363949  0.47966386  0.68270162    -0.71310
O162        O  0.53756384  0.42766172  0.68335608    -0.71370
Ni163      Ni  0.47634700  0.23223489  0.68528776     1.25410
Ni164      Ni  0.48586693  0.45915208  0.68295602     1.25360
C165        C  0.55064431  0.31439148  0.68459880     0.90890
C166        C  0.41178532  0.38393219  0.68373593     0.90830
C167        C  0.48146842  0.32471111  0.64943149     0.90850
C168        C  0.48111686  0.35950294  0.71886723     0.91030
O169        O  0.68387805  0.38132699  0.68554617    -0.71280
O170        O  0.78936440  0.32781714  0.68482653    -0.71320
O171        O  0.73655239  0.37211565  0.65921080    -0.71370
O172        O  0.73690888  0.34558799  0.71116828    -0.71420
O173        O  0.72785232  0.13380132  0.70938502    -0.71350
O174        O  0.72749352  0.16075547  0.65662406    -0.71330
O175        O  0.77959247  0.11663230  0.68262421    -0.71310
O176        O  0.67570245  0.16930154  0.68333754    -0.71370
Ni177      Ni  0.73702418  0.36431910  0.68525500     1.25410
Ni178      Ni  0.72737989  0.13748430  0.68290670     1.25360
C179        C  0.66268223  0.28264316  0.68459085     0.90890
C180        C  0.80150018  0.21220050  0.68366965     0.90830
C181        C  0.73179429  0.27224154  0.64939429     0.90850
C182        C  0.73227420  0.23675524  0.71882309     0.91030
O183        O  0.77964214  0.09002365  0.80795648    -0.71280
O184        O  0.67416841  0.14380132  0.80866610    -0.71320
O185        O  0.72660636  0.12531398  0.78232099    -0.71370
O186        O  0.72698416  0.09996798  0.83429288    -0.71420
O187        O  0.73608508  0.31136635  0.83677886    -0.71350
O188        O  0.73570615  0.33711665  0.78400822    -0.71330
O189        O  0.68398037  0.35501366  0.81076813    -0.71310
O190        O  0.78786274  0.30207779  0.81006549    -0.71370
Ni191      Ni  0.72650059  0.10716855  0.80824465     1.25410
Ni192      Ni  0.73619054  0.33403256  0.81048680     1.25360
C193        C  0.80085897  0.18867233  0.80886774     0.90890
C194        C  0.66205406  0.25946679  0.80977709     0.90830
C195        C  0.73126001  0.23396807  0.77461673     0.90850
C196        C  0.73176429  0.20006105  0.84406153     0.91030
O197        O  0.02934867  0.96347150  0.68552061    -0.71280
O198        O  0.92385998  0.01697921  0.68482732    -0.71320
O199        O  0.97667615  0.97337355  0.65919084    -0.71370
O200        O  0.97632171  0.99853022  0.71116592    -0.71420
O201        O  0.98538809  0.21035367  0.70946820    -0.71350
O202        O  0.98572263  0.18480789  0.65669770    -0.71330
O203        O  0.93363008  0.22822390  0.68272130    -0.71310
O204        O  0.03751917  0.17555325  0.68339762    -0.71370
Ni205      Ni  0.97620147  0.98047751  0.68524088     1.25410
Ni206      Ni  0.98584283  0.20737247  0.68298927     1.25360
C207        C  0.05054211  0.06218638  0.68460435     0.90890
C208        C  0.91172296  0.13261995  0.68371286     0.90830
C209        C  0.98142721  0.07351988  0.64941808     0.90850
C210        C  0.98098855  0.10715582  0.71886544     0.91670
O211        O  0.93408445  0.25501216  0.80791400    -0.71280
O212        O  0.03956493  0.20144853  0.80859874    -0.71320
O213        O  0.98705634  0.21894899  0.78227687    -0.71370
O214        O  0.98680314  0.24605774  0.83422829    -0.71420
O215        O  0.97774997  0.03472685  0.83688896    -0.71350
O216        O  0.97797742  0.00719664  0.78413505    -0.71330
O217        O  0.02979229  0.99028834  0.81086977    -0.71310
O218        O  0.92589758  0.04302188  0.81020408    -0.71370
Ni219      Ni  0.98722765  0.23796995  0.80818483     1.25410
Ni220      Ni  0.97757598  0.01116912  0.81061330     1.25360
C221        C  0.91288343  0.15635727  0.80890985     0.90890
C222        C  0.05170086  0.08584545  0.80978948     0.90830
C223        C  0.98236624  0.11005280  0.77466004     0.90850
C224        C  0.98206529  0.14628975  0.84408069     0.91030
O225        O  0.68381751  0.21738585  0.55788740    -0.71280
O226        O  0.78934915  0.26974933  0.55861669    -0.71320
O227        O  0.73648862  0.22561235  0.58422376    -0.71370
O228        O  0.73689768  0.25297054  0.53227398    -0.71420
O229        O  0.72803872  0.46483012  0.53412616    -0.71350
O230        O  0.72760380  0.43702235  0.58687683    -0.71330
O231        O  0.77976052  0.48099834  0.56089315    -0.71310
O232        O  0.67582138  0.42946145  0.56015921    -0.71370
Ni233      Ni  0.73697736  0.23381818  0.55818111     1.25410
Ni234      Ni  0.72752953  0.46071667  0.56060250     1.25360
C235        C  0.66270473  0.31627193  0.55887640     0.90890
C236        C  0.80158538  0.38521810  0.55980675     0.90830
C237        C  0.73181098  0.32538464  0.59407175     0.90850
C238        C  0.73239997  0.36199376  0.52465480     0.91030
O239        O  0.78054308  0.50980935  0.43559779    -0.71280
O240        O  0.67500793  0.45748195  0.43481955    -0.71320
O241        O  0.72737988  0.47479090  0.46119460    -0.71370
O242        O  0.72796306  0.50105809  0.40923271    -0.71420
O243        O  0.73686874  0.28959980  0.40667601    -0.71350
O244        O  0.73622050  0.26288345  0.45943612    -0.71330
O245        O  0.68459876  0.24618884  0.43263133    -0.71310
O246        O  0.78853343  0.29767668  0.43343177    -0.71370
Ni247      Ni  0.72738156  0.49339894  0.43527792     1.25410
Ni248      Ni  0.73682830  0.26644699  0.43295949     1.25360
C249        C  0.80165308  0.41089106  0.43465673     0.90890
C250        C  0.66277285  0.34199173  0.43366801     0.90830
C251        C  0.73184028  0.36591391  0.46886206     0.90850
C252        C  0.73271895  0.40110413  0.39943146     0.91030
O253        O  0.93485209  0.34320187  0.43549180    -0.71280
O254        O  0.04036646  0.39609845  0.43487737    -0.71320
O255        O  0.98775819  0.37854527  0.46116617    -0.71370
O256        O  0.98767046  0.35219719  0.40920614    -0.71420
O257        O  0.97876008  0.56363583  0.40660283    -0.71350
O258        O  0.97876828  0.09036748  0.45936452    -0.71330
O259        O  0.03070396  0.10735525  0.43267505    -0.71310
O260        O  0.92678425  0.55526978  0.43324620    -0.71370
Ni261      Ni  0.98800720  0.35990136  0.43525266     1.25410
Ni262      Ni  0.97847896  0.58679694  0.43288509     1.25360
C263        C  0.91370615  0.44201525  0.43452046     0.90890
C264        C  0.05256259  0.01164362  0.43372390     0.90830
C265        C  0.98306107  0.48734038  0.46881197     0.90850
C266        C  0.98306717  0.45216640  0.39938006     0.91030
O267        O  0.02953382  0.13273333  0.55798924    -0.71280
O268        O  0.92403082  0.57958408  0.55863345    -0.71320
O269        O  0.97679924  0.12281618  0.58429608    -0.71370
O270        O  0.97656487  0.09804876  0.53231811    -0.71420
O271        O  0.98558438  0.38618972  0.53398749    -0.71350
O272        O  0.98577415  0.41132965  0.58676261    -0.71330
O273        O  0.93373706  0.36828823  0.56070628    -0.71310
O274        O  0.03764607  0.92061324  0.56008961    -0.71370
Ni275      Ni  0.97638259  0.11590594  0.55824539     1.25410
Ni276      Ni  0.98595902  0.38896301  0.56046732     1.25360
C277        C  0.05070037  0.03394403  0.55889775     0.90890
C278        C  0.91185823  0.46398180  0.55972883     0.90830
C279        C  0.98149371  0.02258134  0.59405642     0.90850
C280        C  0.98125357  0.48948312  0.52460417     0.91030
O281        O  0.28058292  0.25838472  0.43559869    -0.71280
O282        O  0.17505966  0.20586511  0.43482385    -0.71320
O283        O  0.22742518  0.22346277  0.46120007    -0.71370
O284        O  0.22800677  0.24932853  0.40923313    -0.71420
O285        O  0.23693864  0.03786298  0.40671112    -0.71350
O286        O  0.23630118  0.01155991  0.45947502    -0.71330
O287        O  0.18467684  0.99456795  0.43267234    -0.71310
O288        O  0.28860907  0.04625234  0.43346491    -0.71370
Ni289      Ni  0.22742610  0.24187266  0.43527984     1.25410
Ni290      Ni  0.23690612  0.01491944  0.43299799     1.25360
C291        C  0.30170966  0.15950431  0.43467339     0.90890
C292        C  0.16283869  0.09035087  0.43368763     0.90830
C293        C  0.23190519  0.11465418  0.46888484     0.90850
C294        C  0.23276715  0.14929830  0.39944818     0.91030
O295        O  0.18387327  0.96647808  0.55791236    -0.71280
O296        O  0.28939915  0.01901769  0.55865959    -0.71320
O297        O  0.23652266  0.97488383  0.58425862    -0.71370
O298        O  0.23697069  0.00205611  0.53230701    -0.71420
O299        O  0.22808107  0.21390745  0.53414188    -0.71350
O300        O  0.22760737  0.18628887  0.58689481    -0.71330
O301        O  0.27977797  0.23025825  0.56091851    -0.71310
O302        O  0.17584933  0.17854991  0.56016724    -0.71370
Ni303      Ni  0.23703185  0.98299707  0.55821567     1.25410
Ni304      Ni  0.22755150  0.20988876  0.56061865     1.25360
C305        C  0.16274759  0.06533752  0.55888985     0.90890
C306        C  0.30161740  0.13451310  0.55984388     0.90830
C307        C  0.23182335  0.07468287  0.59409851     0.90850
C308        C  0.23246234  0.11104348  0.52467882     0.91030
O309        O  0.52944617  0.38325152  0.55799194    -0.71280
O310        O  0.42397201  0.32942396  0.55865710    -0.71320
O311        O  0.47673011  0.37319595  0.58430683    -0.71370
O312        O  0.47648392  0.34803267  0.53233380    -0.71420
O313        O  0.48561769  0.13624390  0.53403361    -0.71350
O314        O  0.48581818  0.16178608  0.58680600    -0.71330
O315        O  0.43379094  0.11820561  0.56076137    -0.71310
O316        O  0.53767042  0.17119846  0.56012466    -0.71370
Ni317      Ni  0.47630389  0.36608261  0.55825770     1.25410
Ni318      Ni  0.48600155  0.13921790  0.56051359     1.25360
C319        C  0.55066458  0.28460194  0.55891214     0.90890
C320        C  0.41186121  0.21375109  0.55977034     0.90830
C321        C  0.48148509  0.27307000  0.59408257     0.90850
C322        C  0.48123053  0.23944373  0.52463546     0.91030
O323        O  0.43498460  0.09286892  0.43550618    -0.71280
O324        O  0.54044603  0.14700983  0.43488738    -0.71320
O325        O  0.48786576  0.12865451  0.46118162    -0.71370
O326        O  0.48778157  0.10267264  0.40921781    -0.71420
O327        O  0.47866662  0.31402510  0.40664462    -0.71350
O328        O  0.47866978  0.34038290  0.45941013    -0.71330
O329        O  0.53058135  0.35817026  0.43271674    -0.71310
O330        O  0.42671246  0.30485845  0.43329128    -0.71370
Ni331      Ni  0.48812290  0.11019686  0.43526493     1.25410
Ni332      Ni  0.47837554  0.33699696  0.43293021     1.25360
C333        C  0.41374379  0.19144205  0.43454844     0.90890
C334        C  0.55253168  0.26270130  0.43374549     0.90830
C335        C  0.48306132  0.23734003  0.46884300     0.90850
C336        C  0.48307496  0.20265333  0.39940620     0.91030
O337        O  0.27966588  0.50802073  0.93553260    -0.71280
O338        O  0.17417476  0.45462101  0.93484419    -0.71320
O339        O  0.22663574  0.47301465  0.96118082    -0.71370
O340        O  0.22699608  0.49816965  0.90920566    -0.71420
O341        O  0.23602979  0.28672658  0.90673383    -0.71350
O342        O  0.23568650  0.26118084  0.95950477    -0.71330
O343        O  0.18392801  0.24336638  0.93275954    -0.71310
O344        O  0.28782534  0.29593239  0.93343252    -0.71370
Ni345      Ni  0.22651856  0.49106713  0.93525498     1.25410
Ni346      Ni  0.23614474  0.26416169  0.93302675     1.25360
C347        C  0.30085440  0.40929158  0.93462498     0.90890
C348        C  0.16202790  0.33899560  0.93374047     0.90830
C349        C  0.23129286  0.36438228  0.96889078     0.90850
C350        C  0.23174312  0.39802097  0.89944372     0.91030
O351        O  0.18434070  0.21655324  0.05794036    -0.71280
O352        O  0.28986536  0.26919506  0.05859986    -0.71320
O353        O  0.23711824  0.22486617  0.08424164    -0.71370
O354        O  0.23730720  0.25231878  0.03229314    -0.71420
O355        O  0.22836524  0.46413057  0.03415963    -0.71350
O356        O  0.22823746  0.43626890  0.08691020    -0.71330
O357        O  0.28023606  0.48042415  0.06087186    -0.71310
O358        O  0.17630962  0.42859443  0.06024779    -0.71370
Ni359      Ni  0.23749930  0.23312254  0.05819897     1.25410
Ni360      Ni  0.22801005  0.45999181  0.06063680     1.25360
C361        C  0.16321187  0.31539371  0.05894010     0.90890
C362        C  0.30207926  0.38469238  0.05979230     0.90830
C363        C  0.23252169  0.32464314  0.09409781     0.90850
C364        C  0.23267855  0.36130098  0.02468131     0.91030
O365        O  0.77974083  0.25793292  0.93551967    -0.71280
O366        O  0.67421766  0.20531174  0.93482709    -0.71320
O367        O  0.72668937  0.22312389  0.96116230    -0.71370
O368        O  0.72706213  0.24867129  0.90919206    -0.71420
O369        O  0.73597031  0.03718368  0.90668758    -0.71350
O370        O  0.73560982  0.01123579  0.95945592    -0.71330
O371        O  0.68384555  0.99400400  0.93270873    -0.71310
O372        O  0.78777277  0.04580166  0.93338832    -0.71370
Ni373      Ni  0.72658321  0.24137279  0.93524016     1.25410
Ni374      Ni  0.73607303  0.01441480  0.93297761     1.25360
C375        C  0.80086999  0.15905613  0.93459830     0.90890
C376        C  0.66200280  0.08978003  0.93370984     0.90830
C377        C  0.73127280  0.11440085  0.96885670     0.90850
C378        C  0.73174769  0.14856343  0.89941449     0.91030
O379        O  0.68438250  0.96734310  0.05798223    -0.71280
O380        O  0.78987190  0.02078326  0.05860524    -0.71320
O381        O  0.73716478  0.97665842  0.08427168    -0.71370
O382        O  0.73731461  0.00292525  0.03230929    -0.71420
O383        O  0.72824613  0.21471219  0.03408087    -0.71350
O384        O  0.72815501  0.18805530  0.08684284    -0.71330
O385        O  0.78011961  0.23199441  0.06078040    -0.71310
O386        O  0.67622062  0.17937576  0.06019104    -0.71370
Ni387      Ni  0.73752933  0.98431854  0.05822519     1.25410
Ni388      Ni  0.72790343  0.21117191  0.06055917     1.25360
C389        C  0.66319263  0.06604349  0.05894175     0.90890
C390        C  0.80201887  0.13639042  0.05974657     0.90830
C391        C  0.73251053  0.07662704  0.09408173     0.90850
C392        C  0.73261952  0.11170670  0.02464850     0.91030
O393        O  0.43405365  0.34232991  0.93556694    -0.71280
O394        O  0.53955794  0.39537129  0.93486225    -0.71320
O395        O  0.48707451  0.37778600  0.96119724    -0.71370
O396        O  0.48675482  0.35136102  0.90923896    -0.71420
O397        O  0.47777786  0.56276737  0.90663780    -0.71350
O398        O  0.47808960  0.08961178  0.95939911    -0.71330
O399        O  0.52986419  0.10660510  0.93264739    -0.71310
O400        O  0.42595173  0.55439211  0.93334095    -0.71370
Ni401      Ni  0.48720520  0.35910402  0.93528408     1.25410
Ni402      Ni  0.47764269  0.58598402  0.93291983     1.25360
C403        C  0.41289175  0.44110462  0.93460234     0.90890
C404        C  0.55173670  0.01093292  0.93369838     0.90830
C405        C  0.48246768  0.48662023  0.96884505     0.90850
C406        C  0.48205182  0.45128250  0.89941479     0.91030
O407        O  0.52997073  0.13274487  0.05796654    -0.71280
O408        O  0.42448166  0.57936520  0.05871908    -0.71320
O409        O  0.47737623  0.12284039  0.08432527    -0.71370
O410        O  0.47687209  0.09781639  0.03235141    -0.71420
O411        O  0.48589731  0.38596428  0.03403070    -0.71350
O412        O  0.48644032  0.41140670  0.08680402    -0.71330
O413        O  0.43423458  0.36810915  0.06082158    -0.71310
O414        O  0.53813215  0.92064366  0.06005905    -0.71370
Ni415      Ni  0.47682437  0.11579970  0.05827659     1.25410
Ni416      Ni  0.48645189  0.38888859  0.06051016     1.25360
C417        C  0.55116016  0.03401292  0.05886978     0.90890
C418        C  0.41233474  0.46373783  0.05982954     0.90830
C419        C  0.48220239  0.02270376  0.09409025     0.90850
C420        C  0.48147045  0.48918792  0.02464242     0.91030
O421        O  0.93406366  0.09149851  0.93557829    -0.71280
O422        O  0.03958003  0.14431954  0.93487757    -0.71320
O423        O  0.98707033  0.12729036  0.96120503    -0.71370
O424        O  0.98678519  0.09996560  0.90925613    -0.71420
O425        O  0.97784125  0.31134272  0.90657949    -0.71350
O426        O  0.97812431  0.33910445  0.95933042    -0.71330
O427        O  0.02991999  0.35553071  0.93258403    -0.71310
O428        O  0.92600055  0.30353961  0.93327680    -0.71370
Ni429      Ni  0.98721928  0.10815968  0.93529907     1.25410
Ni430      Ni  0.97769560  0.33501726  0.93285293     1.25360
C431        C  0.91291992  0.19030350  0.93457717     0.90890
C432        C  0.05177739  0.25984192  0.93367989     0.90830
C433        C  0.98247605  0.23626667  0.96881324     0.90850
C434        C  0.98209451  0.19972233  0.89939626     0.91030
O435        O  0.03004187  0.38327677  0.05789828    -0.71280
O436        O  0.92451039  0.33085120  0.05865030    -0.71320
O437        O  0.97742561  0.37420337  0.08425366    -0.71370
O438        O  0.97692969  0.34848080  0.03228607    -0.71420
O439        O  0.98579659  0.13657151  0.03402508    -0.71350
O440        O  0.98633425  0.16272410  0.08679029    -0.71330
O441        O  0.93411118  0.11954110  0.06081319    -0.71310
O442        O  0.03804423  0.17113144  0.06004955    -0.71370
Ni443      Ni  0.97688170  0.36681550  0.05820614     1.25410
Ni444      Ni  0.98634163  0.13985007  0.06050312     1.25360
C445        C  0.05115726  0.28436523  0.05883097     0.90890
C446        C  0.91228045  0.21534244  0.05978926     0.90830
C447        C  0.98217539  0.27415378  0.09404621     0.90850
C448        C  0.98144939  0.23970568  0.02460794     0.91030
C449        C  0.98180639  0.23599786  0.00496333    -0.10130
C450        C  0.98205352  0.24049676  0.98845486    -0.11690
C451        C  0.48182495  0.48575673  0.00499622    -0.10130
C452        C  0.48206117  0.49051263  0.98848883    -0.11690
C453        C  0.62381174  0.05196781  0.05863658    -0.10130
C454        C  0.59054139  0.04810604  0.05860478    -0.11690
C455        C  0.87329670  0.19017107  0.05983360    -0.10130
C456        C  0.84098654  0.16185990  0.05981167    -0.11690
C457        C  0.87353221  0.17646157  0.93487646    -0.10130
C458        C  0.84025957  0.17284321  0.93488217    -0.11690
C459        C  0.62302205  0.06456770  0.93364859    -0.10130
C460        C  0.59071004  0.03628693  0.93364463    -0.11690
C461        C  0.73173534  0.11081038  0.98850052    -0.10130
C462        C  0.73208801  0.11552815  0.00500622    -0.11690
C463        C  0.09054923  0.29809190  0.05856927    -0.10130
C464        C  0.12382241  0.30164104  0.05861300    -0.11690
C465        C  0.34105919  0.40992234  0.05985894    -0.10130
C466        C  0.37336714  0.43826245  0.05987905    -0.11690
C467        C  0.37350677  0.42715626  0.93489827    -0.10130
C468        C  0.34023571  0.42336328  0.93490474    -0.11690
C469        C  0.12305988  0.31352497  0.93366552    -0.10130
C470        C  0.09075393  0.28515263  0.93364443    -0.11690
C471        C  0.23214531  0.36552437  0.00504111    -0.10130
C472        C  0.23177750  0.36091580  0.98853496    -0.11690
C473        C  0.48186173  0.23607155  0.50499087    -0.10130
C474        C  0.48238106  0.24097948  0.48848596    -0.11690
C475        C  0.37290094  0.18814246  0.55985066    -0.10130
C476        C  0.34059732  0.15974303  0.55988033    -0.11690
C477        C  0.34109982  0.17331905  0.43492587    -0.10130
C478        C  0.37437036  0.17715164  0.43487292    -0.11690
C479        C  0.23212091  0.11084576  0.48852891    -0.10130
C480        C  0.23220617  0.11528072  0.50503705    -0.11690
C481        C  0.09008482  0.04790461  0.55860957    -0.10130
C482        C  0.12335714  0.05156838  0.55860034    -0.11690
C483        C  0.09154034  0.03692746  0.43366074    -0.10130
C484        C  0.12385594  0.06516346  0.43363901    -0.11690
C485        C  0.98239230  0.49111746  0.48845421    -0.10130
C486        C  0.98187884  0.48622608  0.50495916    -0.11690
C487        C  0.87431914  0.42817658  0.43485068    -0.10130
C488        C  0.84104619  0.42459674  0.43490839    -0.11690
C489        C  0.62378929  0.31682464  0.43363186    -0.10130
C490        C  0.59148671  0.28840941  0.43366805    -0.11690
C491        C  0.59004138  0.29879454  0.55861260    -0.10130
C492        C  0.62331278  0.30254378  0.55859489    -0.11690
C493        C  0.84057013  0.41036571  0.55983753    -0.10130
C494        C  0.87288444  0.43861958  0.55980648    -0.11690
C495        C  0.73205184  0.36195910  0.48850521    -0.10130
C496        C  0.73213706  0.36630747  0.50501365    -0.11690
C497        C  0.98154719  0.16247082  0.86361138    -0.10130
C498        C  0.98155754  0.18347007  0.87986690    -0.11690
C499        C  0.98198186  0.05810907  0.62987560    -0.10130
C500        C  0.98200116  0.03786206  0.61360112    -0.11690
C501        C  0.98184320  0.10595589  0.75501803    -0.10130
C502        C  0.98147711  0.11061383  0.73851077    -0.11690
C503        C  0.73231407  0.18455591  0.86360279    -0.10130
C504        C  0.73230590  0.16412997  0.87987415    -0.11690
C505        C  0.87350500  0.17049783  0.80860650    -0.10130
C506        C  0.84023580  0.17444806  0.80859131    -0.11690
C507        C  0.73124342  0.28822235  0.62986038    -0.10130
C508        C  0.73124933  0.30914354  0.61360150    -0.11690
C509        C  0.84046310  0.18665314  0.68362314    -0.10130
C510        C  0.87275908  0.15814885  0.68363956    -0.11690
C511        C  0.73164498  0.23751407  0.75497217    -0.10130
C512        C  0.73188244  0.23282033  0.73846577    -0.11690
C513        C  0.48199898  0.30898447  0.62989373    -0.10130
C514        C  0.48200518  0.28852537  0.61362453    -0.11690
C515        C  0.62330224  0.29674130  0.68488472    -0.10130
C516        C  0.59003126  0.30051548  0.68488519    -0.11690
C517        C  0.48156293  0.41457036  0.86361911    -0.10130
C518        C  0.48153730  0.43536906  0.87987980    -0.11690
C519        C  0.59079169  0.31350053  0.80984532    -0.10130
C520        C  0.62309363  0.28507296  0.80984116    -0.11690
C521        C  0.48198767  0.35870573  0.75501869    -0.10130
C522        C  0.48162153  0.36326861  0.73851098    -0.11690
C523        C  0.23122612  0.03758801  0.62988808    -0.10130
C524        C  0.23124605  0.05850315  0.61362908    -0.11690
C525        C  0.12319533  0.04447349  0.68489491    -0.10130
C526        C  0.08992287  0.04811219  0.68489322    -0.11690
C527        C  0.34048272  0.43732430  0.68366212    -0.10130
C528        C  0.37280527  0.40918056  0.68367404    -0.11690
C529        C  0.23230738  0.43376274  0.86362748    -0.10130
C530        C  0.23229993  0.41344329  0.87990137    -0.11690
C531        C  0.37356626  0.42207703  0.80861483    -0.10130
C532        C  0.34029213  0.42553920  0.80860805    -0.11690
C533        C  0.12298355  0.03211835  0.80984907    -0.10130
C534        C  0.09066683  0.06033894  0.80984533    -0.11690
C535        C  0.23158439  0.48643927  0.75499488    -0.10130
C536        C  0.23181861  0.48177163  0.73848857    -0.11690
C537        C  0.23350016  0.16503263  0.37991196    -0.10130
C538        C  0.23367560  0.18561726  0.36364486    -0.11690
C539        C  0.23241394  0.28773144  0.12989278    -0.10130
C540        C  0.23219012  0.30845680  0.11362945    -0.11690
C541        C  0.23333154  0.23977954  0.25502633    -0.10130
C542        C  0.23355208  0.23496758  0.23852077    -0.11690
C543        C  0.48293152  0.16637186  0.36360108    -0.10130
C544        C  0.48273795  0.18695515  0.37986693    -0.11690
C545        C  0.37516473  0.17365251  0.30860132    -0.10130
C546        C  0.34189072  0.17712890  0.30862241    -0.11690
C547        C  0.48319038  0.05888950  0.12989289    -0.10130
C548        C  0.48296040  0.03820287  0.11362977    -0.11690
C549        C  0.34200697  0.18769370  0.18365589    -0.10130
C550        C  0.37432791  0.15952597  0.18367940    -0.11690
C551        C  0.48334577  0.11632593  0.23847877    -0.10130
C552        C  0.48372648  0.11191316  0.25498714    -0.11690
C553        C  0.98273624  0.43635799  0.37984229    -0.10130
C554        C  0.98293591  0.41579158  0.36357593    -0.11690
C555        C  0.09238152  0.31443312  0.30984075    -0.10130
C556        C  0.12467444  0.28588702  0.30984825    -0.11690
C557        C  0.98293873  0.28988552  0.11358218    -0.10130
C558        C  0.98317982  0.31061864  0.12984415    -0.11690
C559        C  0.09155806  0.30152961  0.18484549    -0.10130
C560        C  0.12482612  0.29747641  0.18489228    -0.11690
C561        C  0.98377098  0.36253063  0.25494887    -0.10130
C562        C  0.98339898  0.36712374  0.23844099    -0.11690
C563        C  0.73348437  0.41701920  0.37989847    -0.10130
C564        C  0.73370274  0.43782716  0.36363720    -0.11690
C565        C  0.84202506  0.43023018  0.30861713    -0.10130
C566        C  0.87529436  0.42629265  0.30857927    -0.11690
C567        C  0.62480207  0.03899260  0.30984460    -0.10130
C568        C  0.59247627  0.06709311  0.30984505    -0.11690
C569        C  0.73219655  0.06088525  0.11362046    -0.10130
C570        C  0.73244366  0.04048691  0.12989192    -0.11690
C571        C  0.62492379  0.04984149  0.18493197    -0.10130
C572        C  0.59164872  0.05320059  0.18488906    -0.11690
C573        C  0.87448196  0.41369684  0.18363916    -0.10130
C574        C  0.84218400  0.44217480  0.18362440    -0.11690
C575        C  0.73356437  0.49396252  0.25503956    -0.10130
C576        C  0.73379484  0.48919839  0.23853388    -0.11690
O577        O  0.68542171  0.63515267  0.18553751    -0.71280
O578        O  0.79096139  0.58285063  0.18476265    -0.71320
O579        O  0.73798760  0.62551769  0.15916455    -0.71370
O580        O  0.73859516  0.60105073  0.21114419    -0.71420
O581        O  0.72975179  0.88908815  0.20953507    -0.71350
O582        O  0.72909867  0.91396608  0.15675775    -0.71330
O583        O  0.78137752  0.87147931  0.18273045    -0.71310
O584        O  0.67744469  0.42294459  0.18351789    -0.71370
Ni585      Ni  0.73858540  0.61875954  0.18521407     1.25410
Ni586      Ni  0.72914847  0.89172635  0.18305688     1.25360
C587        C  0.66431813  0.53618683  0.18467131     0.90890
C588        C  0.80320016  0.96732822  0.18368295     0.90830
C589        C  0.73323294  0.52522509  0.14943466     0.90850
C590        C  0.73410811  0.99245202  0.21888834     0.91030
O591        O  0.78149115  0.84533884  0.30795896    -0.71280
O592        O  0.67598130  0.89820599  0.30862537    -0.71320
O593        O  0.72851782  0.88097883  0.28231472    -0.71370
O594        O  0.72872919  0.85401935  0.33426667    -0.71420
O595        O  0.73765396  0.06542311  0.33689444    -0.71350
O596        O  0.73748117  0.59279699  0.28413781    -0.71330
O597        O  0.68563735  0.60943804  0.31086019    -0.71310
O598        O  0.78956329  0.05738489  0.31021861    -0.71370
Ni599      Ni  0.72833880  0.86202820  0.30822341     1.25410
Ni600      Ni  0.73786406  0.58890098  0.31061584     1.25360
C601        C  0.80263918  0.94413311  0.30893640     0.90890
C602        C  0.66378162  0.51373346  0.30979484     0.90830
C603        C  0.73313033  0.98989298  0.27468071     0.90850
C604        C  0.73335444  0.95387034  0.34410338     0.91030
O605        O  0.03091545  0.71754025  0.18552588    -0.71280
O606        O  0.92547544  0.77211422  0.18488974    -0.71320
O607        O  0.97813089  0.72697470  0.15923468    -0.71370
O608        O  0.97803031  0.75414227  0.21118722    -0.71420
O609        O  0.98728590  0.96579831  0.20931868    -0.71350
O610        O  0.98732246  0.93822861  0.15656548    -0.71330
O611        O  0.93540899  0.98318405  0.18261741    -0.71310
O612        O  0.03926100  0.92944624  0.18321730    -0.71370
Ni613      Ni  0.97778462  0.73509071  0.18527915     1.25410
Ni614      Ni  0.98760736  0.96179737  0.18284029     1.25360
C615        C  0.05219022  0.81599905  0.18452237     0.90890
C616        C  0.91342798  0.88783114  0.18370022     0.90830
C617        C  0.98287075  0.82671904  0.14937740     0.90850
C618        C  0.98283269  0.86299887  0.21879889     0.91030
O619        O  0.93592820  0.01038671  0.30791164    -0.71280
O620        O  0.04137569  0.95599264  0.30863981    -0.71320
O621        O  0.98896598  0.97472925  0.28228302    -0.71370
O622        O  0.98854210  0.00019032  0.33425522    -0.71420
O623        O  0.97932601  0.78885668  0.33677045    -0.71350
O624        O  0.97976420  0.76298467  0.28400241    -0.71330
O625        O  0.03146013  0.74484399  0.31077491    -0.71310
O626        O  0.92760619  0.79838122  0.31004775    -0.71370
Ni627      Ni  0.98906152  0.99292912  0.30820643     1.25410
Ni628      Ni  0.97925938  0.76612873  0.31048115     1.25360
C629        C  0.91466458  0.91186085  0.30883965     0.90890
C630        C  0.05343336  0.84026009  0.30977055     0.90830
C631        C  0.98424255  0.86609419  0.27459441     0.90850
C632        C  0.98365561  0.90016920  0.34403779     0.91030
O633        O  0.53119520  0.46757750  0.18558821    -0.71280
O634        O  0.42562921  0.51925557  0.18495199    -0.71320
O635        O  0.47837678  0.47532398  0.15929926    -0.71370
O636        O  0.47823540  0.50295145  0.21124695    -0.71420
O637        O  0.48701517  0.71483353  0.20933918    -0.71350
O638        O  0.48709137  0.68679662  0.15659235    -0.71330
O639        O  0.43509629  0.73056182  0.18264062    -0.71310
O640        O  0.53906324  0.67968031  0.18323996    -0.71370
Ni641      Ni  0.47802380  0.48366251  0.18534272     1.25410
Ni642      Ni  0.48733775  0.71060562  0.18286220     1.25360
C643        C  0.55224833  0.56660391  0.18456561     0.90890
C644        C  0.41332656  0.63463801  0.18374261     0.90830
C645        C  0.48288037  0.57511334  0.14942402     0.90850
C646        C  0.48279249  0.61200366  0.21883818     0.91030
O647        O  0.43562753  0.75919365  0.30792315    -0.71280
O648        O  0.54118606  0.70742777  0.30863699    -0.71320
O649        O  0.48870978  0.72455644  0.28229223    -0.71370
O650        O  0.48829169  0.75061235  0.33425832    -0.71420
O651        O  0.47951167  0.53908661  0.33682498    -0.71350
O652        O  0.47993857  0.51261354  0.28406419    -0.71330
O653        O  0.53169883  0.49606925  0.31082434    -0.71310
O654        O  0.42773556  0.54701897  0.31011396    -0.71370
Ni655      Ni  0.48879570  0.74306179  0.30821056     1.25410
Ni656      Ni  0.47945623  0.51605424  0.31054163     1.25360
C657        C  0.41456352  0.66016123  0.30887530     0.90890
C658        C  0.55347827  0.59200483  0.30978864     0.90830
C659        C  0.48420070  0.61571862  0.27463092     0.90850
C660        C  0.48363031  0.65057972  0.34406555     0.91030
O661        O  0.18539413  0.88208584  0.18554247    -0.71280
O662        O  0.29088208  0.82874184  0.18480283    -0.71320
O663        O  0.23799510  0.87227521  0.15919138    -0.71370
O664        O  0.23848480  0.84709662  0.21116277    -0.71420
O665        O  0.22947118  0.63524255  0.20949369    -0.71350
O666        O  0.22893699  0.66084563  0.15672119    -0.71330
O667        O  0.28114156  0.61748688  0.18270818    -0.71310
O668        O  0.17723733  0.66998847  0.18346094    -0.71370
Ni669      Ni  0.23853921  0.86515575  0.18523870     1.25410
Ni670      Ni  0.22892095  0.63824600  0.18301504     1.25360
C671        C  0.16420691  0.78335694  0.18464058     0.90890
C672        C  0.30303608  0.71312514  0.18369909     0.90830
C673        C  0.23317182  0.77216775  0.14943122     0.90850
C674        C  0.23389491  0.73844330  0.21887616     0.91030
O675        O  0.28135923  0.59212228  0.30799045    -0.71280
O676        O  0.17584109  0.64498841  0.30866819    -0.71320
O677        O  0.22834377  0.62725855  0.28234592    -0.71370
O678        O  0.22862903  0.60128281  0.33430880    -0.71420
O679        O  0.23756115  0.81273309  0.33685310    -0.71350
O680        O  0.23730013  0.83911377  0.28408675    -0.71330
O681        O  0.18550733  0.85625651  0.31082222    -0.71310
O682        O  0.28942089  0.80421752  0.31016282    -0.71370
Ni683      Ni  0.22820193  0.60879971  0.30826288     1.25410
Ni684      Ni  0.23772712  0.83571818  0.31056578     1.25360
C685        C  0.30250236  0.69095282  0.30892758     0.90890
C686        C  0.16364787  0.76054604  0.30979890     0.90830
C687        C  0.23293549  0.73603744  0.27466944     0.90850
C688        C  0.23327696  0.70131286  0.34410574     0.91030
O689        O  0.27982996  0.83997277  0.80798565    -0.71280
O690        O  0.17427030  0.89174516  0.80868976    -0.71320
O691        O  0.22673997  0.87419006  0.78234807    -0.71370
O692        O  0.22714974  0.84897565  0.83432124    -0.71420
O693        O  0.23591976  0.06054751  0.83679689    -0.71350
O694        O  0.23550899  0.58616359  0.78402601    -0.71330
O695        O  0.18375848  0.60313984  0.81078247    -0.71310
O696        O  0.28771941  0.05218137  0.81008546    -0.71370
Ni697      Ni  0.22666076  0.85610303  0.80827242     1.25410
Ni698      Ni  0.23599762  0.08315052  0.81050421     1.25360
C699        C  0.30089298  0.93902361  0.80889076     0.90890
C700        C  0.16197931  0.50718832  0.80979349     0.90830
C701        C  0.23121945  0.98291540  0.77463920     0.90850
C702        C  0.23176381  0.94918584  0.84408508     0.91030
O703        O  0.18367675  0.62983415  0.68557247    -0.71280
O704        O  0.28922285  0.07778297  0.68487048    -0.71320
O705        O  0.23638507  0.62145701  0.65924700    -0.71370
O706        O  0.23672490  0.59471843  0.71120197    -0.71420
O707        O  0.22790845  0.88281824  0.70939945    -0.71350
O708        O  0.22756902  0.90998542  0.65664111    -0.71330
O709        O  0.27969173  0.86647617  0.68264902    -0.71310
O710        O  0.17573827  0.91771156  0.68334375    -0.71370
Ni711      Ni  0.23684115  0.61355963  0.68529073     1.25410
Ni712      Ni  0.22745454  0.88660548  0.68292160     1.25360
C713        C  0.16259090  0.53087218  0.68460509     0.90890
C714        C  0.30149064  0.96233962  0.68370624     0.90830
C715        C  0.23175573  0.52155470  0.64942124     0.90850
C716        C  0.23220936  0.98579165  0.71884671     0.91030
O717        O  0.43409295  0.00710623  0.80792906    -0.71280
O718        O  0.53961344  0.95432694  0.80861767    -0.71320
O719        O  0.48710450  0.97160753  0.78229164    -0.71370
O720        O  0.48680634  0.99838953  0.83424779    -0.71420
O721        O  0.47787740  0.78697769  0.83687950    -0.71350
O722        O  0.47815928  0.75977604  0.78412346    -0.71330
O723        O  0.52996089  0.74308729  0.81086310    -0.71310
O724        O  0.42604221  0.79503826  0.81018914    -0.71370
Ni725      Ni  0.48725034  0.99046790  0.80820282     1.25410
Ni726      Ni  0.47773667  0.76358157  0.81060149     1.25360
C727        C  0.41295511  0.90827751  0.80891147     0.90890
C728        C  0.55181479  0.83879798  0.80979485     0.90830
C729        C  0.48249083  0.86271815  0.77466122     0.90850
C730        C  0.48211720  0.89852619  0.84408640     0.91030
O731        O  0.52950068  0.71556789  0.68555436    -0.71280
O732        O  0.42398735  0.76839142  0.68488282    -0.71320
O733        O  0.47678567  0.72469746  0.65923994    -0.71370
O734        O  0.47649719  0.75072232  0.71120568    -0.71420
O735        O  0.48545062  0.96257432  0.70943427    -0.71350
O736        O  0.48571746  0.93614642  0.65667201    -0.71330
O737        O  0.43363949  0.97966386  0.68270162    -0.71310
O738        O  0.53756384  0.92766173  0.68335608    -0.71370
Ni739      Ni  0.47634700  0.73223489  0.68528776     1.25410
Ni740      Ni  0.48586693  0.95915209  0.68295602     1.25360
C741        C  0.55064431  0.81439149  0.68459880     0.90890
C742        C  0.41178532  0.88393219  0.68373593     0.90830
C743        C  0.48146842  0.82471111  0.64943149     0.90850
C744        C  0.48111686  0.85950294  0.71886723     0.91030
O745        O  0.68387805  0.88132699  0.68554617    -0.71280
O746        O  0.78936440  0.82781715  0.68482653    -0.71320
O747        O  0.73655239  0.87211566  0.65921080    -0.71370
O748        O  0.73690888  0.84558800  0.71116828    -0.71420
O749        O  0.72785232  0.63380133  0.70938502    -0.71350
O750        O  0.72749352  0.66075548  0.65662406    -0.71330
O751        O  0.77959247  0.61663231  0.68262421    -0.71310
O752        O  0.67570245  0.66930155  0.68333754    -0.71370
Ni753      Ni  0.73702418  0.86431911  0.68525500     1.25410
Ni754      Ni  0.72737989  0.63748431  0.68290670     1.25360
C755        C  0.66268223  0.78264317  0.68459085     0.90890
C756        C  0.80150018  0.71220051  0.68366965     0.90830
C757        C  0.73179429  0.77224155  0.64939429     0.90850
C758        C  0.73227420  0.73675525  0.71882309     0.91030
O759        O  0.77964214  0.59002365  0.80795648    -0.71280
O760        O  0.67416842  0.64380132  0.80866610    -0.71320
O761        O  0.72660636  0.62531399  0.78232099    -0.71370
O762        O  0.72698416  0.59996798  0.83429288    -0.71420
O763        O  0.73608508  0.81136635  0.83677886    -0.71350
O764        O  0.73570615  0.83711666  0.78400822    -0.71330
O765        O  0.68398037  0.85501367  0.81076813    -0.71310
O766        O  0.78786274  0.80207780  0.81006549    -0.71370
Ni767      Ni  0.72650059  0.60716856  0.80824465     1.25410
Ni768      Ni  0.73619054  0.83403256  0.81048680     1.25360
C769        C  0.80085897  0.68867234  0.80886774     0.90890
C770        C  0.66205406  0.75946680  0.80977709     0.90830
C771        C  0.73126001  0.73396808  0.77461673     0.90850
C772        C  0.73176429  0.70006106  0.84406153     0.91030
O773        O  0.02934867  0.46347151  0.68552061    -0.71280
O774        O  0.92385998  0.51697922  0.68482732    -0.71320
O775        O  0.97667615  0.47337356  0.65919084    -0.71370
O776        O  0.97632171  0.49853022  0.71116592    -0.71420
O777        O  0.98538809  0.71035367  0.70946820    -0.71350
O778        O  0.98572263  0.68480789  0.65669770    -0.71330
O779        O  0.93363008  0.72822391  0.68272130    -0.71310
O780        O  0.03751917  0.67555325  0.68339762    -0.71370
Ni781      Ni  0.97620147  0.48047752  0.68524088     1.25410
Ni782      Ni  0.98584283  0.70737248  0.68298927     1.25360
C783        C  0.05054212  0.56218638  0.68460435     0.90890
C784        C  0.91172296  0.63261996  0.68371286     0.90830
C785        C  0.98142721  0.57351988  0.64941808     0.90850
C786        C  0.98098855  0.60715583  0.71886544     0.91670
O787        O  0.93408445  0.75501216  0.80791400    -0.71280
O788        O  0.03956493  0.70144853  0.80859874    -0.71320
O789        O  0.98705634  0.71894899  0.78227687    -0.71370
O790        O  0.98680314  0.74605774  0.83422829    -0.71420
O791        O  0.97774997  0.53472686  0.83688896    -0.71350
O792        O  0.97797742  0.50719664  0.78413505    -0.71330
O793        O  0.02979229  0.49028834  0.81086977    -0.71310
O794        O  0.92589758  0.54302189  0.81020408    -0.71370
Ni795      Ni  0.98722765  0.73796996  0.80818483     1.25410
Ni796      Ni  0.97757598  0.51116912  0.81061330     1.25360
C797        C  0.91288343  0.65635728  0.80890985     0.90890
C798        C  0.05170087  0.58584546  0.80978948     0.90830
C799        C  0.98236624  0.61005281  0.77466004     0.90850
C800        C  0.98206530  0.64628975  0.84408069     0.91030
O801        O  0.68381751  0.71738585  0.55788740    -0.71280
O802        O  0.78934915  0.76974933  0.55861669    -0.71320
O803        O  0.73648862  0.72561235  0.58422376    -0.71370
O804        O  0.73689768  0.75297054  0.53227398    -0.71420
O805        O  0.72803872  0.96483012  0.53412616    -0.71350
O806        O  0.72760380  0.93702236  0.58687683    -0.71330
O807        O  0.77976052  0.98099834  0.56089315    -0.71310
O808        O  0.67582138  0.92946146  0.56015921    -0.71370
Ni809      Ni  0.73697736  0.73381819  0.55818111     1.25410
Ni810      Ni  0.72752953  0.96071667  0.56060250     1.25360
C811        C  0.66270473  0.81627194  0.55887640     0.90890
C812        C  0.80158538  0.88521811  0.55980675     0.90830
C813        C  0.73181098  0.82538465  0.59407175     0.90850
C814        C  0.73239997  0.86199376  0.52465480     0.91030
O815        O  0.78054308  0.00980936  0.43559779    -0.71280
O816        O  0.67500793  0.95748196  0.43481955    -0.71320
O817        O  0.72737988  0.97479091  0.46119460    -0.71370
O818        O  0.72796306  0.00105811  0.40923271    -0.71420
O819        O  0.73686874  0.78959982  0.40667601    -0.71350
O820        O  0.73622049  0.76288345  0.45943612    -0.71330
O821        O  0.68459876  0.74618885  0.43263133    -0.71310
O822        O  0.78853343  0.79767669  0.43343177    -0.71370
Ni823      Ni  0.72738156  0.99339895  0.43527792     1.25410
Ni824      Ni  0.73682830  0.76644700  0.43295949     1.25360
C825        C  0.80165308  0.91089107  0.43465673     0.90890
C826        C  0.66277285  0.84199174  0.43366800     0.90830
C827        C  0.73184028  0.86591392  0.46886206     0.90850
C828        C  0.73271895  0.90110415  0.39943146     0.91030
O829        O  0.93485209  0.84320188  0.43549180    -0.71280
O830        O  0.04036646  0.89609846  0.43487737    -0.71320
O831        O  0.98775819  0.87854528  0.46116617    -0.71370
O832        O  0.98767046  0.85219720  0.40920614    -0.71420
O833        O  0.97876008  0.06363583  0.40660283    -0.71350
O834        O  0.97876828  0.59036747  0.45936452    -0.71330
O835        O  0.03070396  0.60735524  0.43267505    -0.71310
O836        O  0.92678425  0.05526979  0.43324620    -0.71370
Ni837      Ni  0.98800720  0.85990137  0.43525266     1.25410
Ni838      Ni  0.97847896  0.08679695  0.43288509     1.25360
C839        C  0.91370615  0.94201526  0.43452046     0.90890
C840        C  0.05256259  0.51164362  0.43372390     0.90830
C841        C  0.98306107  0.98734039  0.46881196     0.90850
C842        C  0.98306717  0.95216641  0.39938006     0.91030
O843        O  0.02953383  0.63273333  0.55798924    -0.71280
O844        O  0.92403082  0.07958408  0.55863345    -0.71320
O845        O  0.97679924  0.62281618  0.58429608    -0.71370
O846        O  0.97656487  0.59804875  0.53231811    -0.71420
O847        O  0.98558438  0.88618973  0.53398749    -0.71350
O848        O  0.98577415  0.91132965  0.58676261    -0.71330
O849        O  0.93373706  0.86828824  0.56070628    -0.71310
O850        O  0.03764607  0.42061324  0.56008961    -0.71370
Ni851      Ni  0.97638259  0.61590594  0.55824539     1.25410
Ni852      Ni  0.98595902  0.88896302  0.56046731     1.25360
C853        C  0.05070037  0.53394402  0.55889775     0.90890
C854        C  0.91185823  0.96398180  0.55972883     0.90830
C855        C  0.98149372  0.52258134  0.59405642     0.90850
C856        C  0.98125357  0.98948312  0.52460417     0.91030
O857        O  0.28058292  0.75838471  0.43559869    -0.71280
O858        O  0.17505966  0.70586510  0.43482385    -0.71320
O859        O  0.22742518  0.72346276  0.46120007    -0.71370
O860        O  0.22800677  0.74932852  0.40923313    -0.71420
O861        O  0.23693864  0.53786297  0.40671112    -0.71350
O862        O  0.23630118  0.51155991  0.45947502    -0.71330
O863        O  0.18467684  0.49456794  0.43267234    -0.71310
O864        O  0.28860907  0.54625233  0.43346491    -0.71370
Ni865      Ni  0.22742610  0.74187265  0.43527984     1.25410
Ni866      Ni  0.23690612  0.51491944  0.43299799     1.25360
C867        C  0.30170966  0.65950430  0.43467339     0.90890
C868        C  0.16283869  0.59035087  0.43368763     0.90830
C869        C  0.23190520  0.61465418  0.46888484     0.90850
C870        C  0.23276715  0.64929830  0.39944818     0.91030
O871        O  0.18387327  0.46647808  0.55791236    -0.71280
O872        O  0.28939915  0.51901769  0.55865959    -0.71320
O873        O  0.23652266  0.47488384  0.58425862    -0.71370
O874        O  0.23697070  0.50205611  0.53230701    -0.71420
O875        O  0.22808107  0.71390745  0.53414188    -0.71350
O876        O  0.22760737  0.68628887  0.58689481    -0.71330
O877        O  0.27977797  0.73025826  0.56091851    -0.71310
O878        O  0.17584933  0.67854991  0.56016724    -0.71370
Ni879      Ni  0.23703185  0.48299707  0.55821567     1.25410
Ni880      Ni  0.22755150  0.70988876  0.56061865     1.25360
C881        C  0.16274759  0.56533752  0.55888985     0.90890
C882        C  0.30161740  0.63451310  0.55984388     0.90830
C883        C  0.23182335  0.57468287  0.59409851     0.90850
C884        C  0.23246234  0.61104348  0.52467882     0.91030
O885        O  0.52944617  0.88325153  0.55799194    -0.71280
O886        O  0.42397201  0.82942396  0.55865710    -0.71320
O887        O  0.47673011  0.87319595  0.58430683    -0.71370
O888        O  0.47648391  0.84803268  0.53233380    -0.71420
O889        O  0.48561769  0.63624391  0.53403361    -0.71350
O890        O  0.48581818  0.66178608  0.58680600    -0.71330
O891        O  0.43379094  0.61820562  0.56076137    -0.71310
O892        O  0.53767042  0.67119847  0.56012466    -0.71370
Ni893      Ni  0.47630389  0.86608262  0.55825770     1.25410
Ni894      Ni  0.48600154  0.63921790  0.56051359     1.25360
C895        C  0.55066458  0.78460195  0.55891214     0.90890
C896        C  0.41186121  0.71375110  0.55977034     0.90830
C897        C  0.48148509  0.77307000  0.59408257     0.90850
C898        C  0.48123053  0.73944374  0.52463546     0.91030
O899        O  0.43498460  0.59286892  0.43550618    -0.71280
O900        O  0.54044603  0.64700983  0.43488738    -0.71320
O901        O  0.48786576  0.62865452  0.46118163    -0.71370
O902        O  0.48778157  0.60267264  0.40921781    -0.71420
O903        O  0.47866662  0.81402509  0.40664462    -0.71350
O904        O  0.47866978  0.84038291  0.45941013    -0.71330
O905        O  0.53058135  0.85817026  0.43271674    -0.71310
O906        O  0.42671246  0.80485845  0.43329128    -0.71370
Ni907      Ni  0.48812290  0.61019686  0.43526493     1.25410
Ni908      Ni  0.47837554  0.83699696  0.43293021     1.25360
C909        C  0.41374379  0.69144205  0.43454844     0.90890
C910        C  0.55253168  0.76270131  0.43374549     0.90830
C911        C  0.48306132  0.73734004  0.46884300     0.90850
C912        C  0.48307496  0.70265333  0.39940620     0.91030
O913        O  0.27966588  0.00802074  0.93553260    -0.71280
O914        O  0.17417476  0.95462101  0.93484419    -0.71320
O915        O  0.22663574  0.97301466  0.96118082    -0.71370
O916        O  0.22699608  0.99816965  0.90920566    -0.71420
O917        O  0.23602979  0.78672658  0.90673383    -0.71350
O918        O  0.23568650  0.76118084  0.95950477    -0.71330
O919        O  0.18392801  0.74336638  0.93275954    -0.71310
O920        O  0.28782534  0.79593239  0.93343252    -0.71370
Ni921      Ni  0.22651856  0.99106713  0.93525498     1.25410
Ni922      Ni  0.23614474  0.76416170  0.93302675     1.25360
C923        C  0.30085440  0.90929159  0.93462498     0.90890
C924        C  0.16202790  0.83899560  0.93374047     0.90830
C925        C  0.23129286  0.86438228  0.96889078     0.90850
C926        C  0.23174312  0.89802097  0.89944372     0.91030
O927        O  0.18434070  0.71655324  0.05794036    -0.71280
O928        O  0.28986536  0.76919506  0.05859986    -0.71320
O929        O  0.23711824  0.72486618  0.08424164    -0.71370
O930        O  0.23730720  0.75231879  0.03229314    -0.71420
O931        O  0.22836524  0.96413058  0.03415963    -0.71350
O932        O  0.22823746  0.93626890  0.08691020    -0.71330
O933        O  0.28023606  0.98042415  0.06087186    -0.71310
O934        O  0.17630962  0.92859443  0.06024779    -0.71370
Ni935      Ni  0.23749930  0.73312255  0.05819897     1.25410
Ni936      Ni  0.22801005  0.95999182  0.06063680     1.25360
C937        C  0.16321187  0.81539372  0.05894010     0.90890
C938        C  0.30207926  0.88469238  0.05979230     0.90830
C939        C  0.23252169  0.82464314  0.09409781     0.90850
C940        C  0.23267855  0.86130099  0.02468131     0.91030
O941        O  0.77974083  0.75793291  0.93551967    -0.71280
O942        O  0.67421766  0.70531174  0.93482709    -0.71320
O943        O  0.72668937  0.72312389  0.96116230    -0.71370
O944        O  0.72706213  0.74867129  0.90919206    -0.71420
O945        O  0.73597031  0.53718367  0.90668758    -0.71350
O946        O  0.73560982  0.51123579  0.95945592    -0.71330
O947        O  0.68384555  0.49400400  0.93270873    -0.71310
O948        O  0.78777277  0.54580166  0.93338832    -0.71370
Ni949      Ni  0.72658321  0.74137279  0.93524016     1.25410
Ni950      Ni  0.73607303  0.51441480  0.93297761     1.25360
C951        C  0.80086999  0.65905612  0.93459830     0.90890
C952        C  0.66200281  0.58978003  0.93370984     0.90830
C953        C  0.73127280  0.61440085  0.96885670     0.90850
C954        C  0.73174769  0.64856343  0.89941449     0.91030
O955        O  0.68438250  0.46734309  0.05798223    -0.71280
O956        O  0.78987190  0.52078325  0.05860524    -0.71320
O957        O  0.73716478  0.47665841  0.08427168    -0.71370
O958        O  0.73731461  0.50292524  0.03230929    -0.71420
O959        O  0.72824614  0.71471218  0.03408087    -0.71350
O960        O  0.72815501  0.68805529  0.08684284    -0.71330
O961        O  0.78011961  0.73199441  0.06078040    -0.71310
O962        O  0.67622062  0.67937575  0.06019104    -0.71370
Ni963      Ni  0.73752933  0.48431852  0.05822519     1.25410
Ni964      Ni  0.72790343  0.71117190  0.06055917     1.25360
C965        C  0.66319263  0.56604348  0.05894175     0.90890
C966        C  0.80201888  0.63639042  0.05974657     0.90830
C967        C  0.73251054  0.57662703  0.09408173     0.90850
C968        C  0.73261952  0.61170669  0.02464850     0.91030
O969        O  0.43405365  0.84232992  0.93556694    -0.71280
O970        O  0.53955794  0.89537129  0.93486225    -0.71320
O971        O  0.48707451  0.87778601  0.96119724    -0.71370
O972        O  0.48675482  0.85136103  0.90923896    -0.71420
O973        O  0.47777786  0.06276738  0.90663780    -0.71350
O974        O  0.47808960  0.58961177  0.95939911    -0.71330
O975        O  0.52986419  0.60660510  0.93264739    -0.71310
O976        O  0.42595173  0.05439211  0.93334095    -0.71370
Ni977      Ni  0.48720519  0.85910402  0.93528408     1.25410
Ni978      Ni  0.47764269  0.08598402  0.93291983     1.25360
C979        C  0.41289175  0.94110462  0.93460234     0.90890
C980        C  0.55173670  0.51093292  0.93369838     0.90830
C981        C  0.48246768  0.98662024  0.96884505     0.90850
C982        C  0.48205181  0.95128250  0.89941479     0.91030
O983        O  0.52997073  0.63274485  0.05796654    -0.71280
O984        O  0.42448166  0.07936521  0.05871908    -0.71320
O985        O  0.47737624  0.62284038  0.08432527    -0.71370
O986        O  0.47687210  0.59781638  0.03235141    -0.71420
O987        O  0.48589731  0.88596429  0.03403070    -0.71350
O988        O  0.48644032  0.91140671  0.08680402    -0.71330
O989        O  0.43423458  0.86810916  0.06082158    -0.71310
O990        O  0.53813215  0.42064364  0.06005905    -0.71370
Ni991      Ni  0.47682437  0.61579969  0.05827659     1.25410
Ni992      Ni  0.48645189  0.88888860  0.06051016     1.25360
C993        C  0.55116016  0.53401291  0.05886978     0.90890
C994        C  0.41233474  0.96373784  0.05982954     0.90830
C995        C  0.48220239  0.52270375  0.09409025     0.90850
C996        C  0.48147045  0.98918793  0.02464242     0.91030
O997        O  0.93406366  0.59149851  0.93557829    -0.71280
O998        O  0.03958003  0.64431953  0.93487757    -0.71320
O999        O  0.98707033  0.62729035  0.96120503    -0.71370
O1000       O  0.98678519  0.59996560  0.90925613    -0.71420
O1001       O  0.97784125  0.81134272  0.90657949    -0.71350
O1002       O  0.97812431  0.83910444  0.95933042    -0.71330
O1003       O  0.02991998  0.85553071  0.93258403    -0.71310
O1004       O  0.92600055  0.80353961  0.93327680    -0.71370
Ni1005     Ni  0.98721928  0.60815968  0.93529907     1.25410
Ni1006     Ni  0.97769560  0.83501726  0.93285293     1.25360
C1007       C  0.91291992  0.69030350  0.93457717     0.90890
C1008       C  0.05177739  0.75984192  0.93367989     0.90830
C1009       C  0.98247605  0.73626666  0.96881324     0.90850
C1010       C  0.98209451  0.69972233  0.89939626     0.91030
O1011       O  0.03004187  0.88327677  0.05789828    -0.71280
O1012       O  0.92451039  0.83085119  0.05865029    -0.71320
O1013       O  0.97742561  0.87420337  0.08425366    -0.71370
O1014       O  0.97692969  0.84848079  0.03228607    -0.71420
O1015       O  0.98579659  0.63657150  0.03402508    -0.71350
O1016       O  0.98633425  0.66272411  0.08679029    -0.71330
O1017       O  0.93411118  0.61954109  0.06081319    -0.71310
O1018       O  0.03804423  0.67113144  0.06004955    -0.71370
Ni1019     Ni  0.97688170  0.86681550  0.05820614     1.25410
Ni1020     Ni  0.98634163  0.63985007  0.06050312     1.25360
C1021       C  0.05115726  0.78436523  0.05883097     0.90890
C1022       C  0.91228045  0.71534244  0.05978926     0.90830
C1023       C  0.98217539  0.77415378  0.09404621     0.90850
C1024       C  0.98144939  0.73970568  0.02460794     0.91030
C1025       C  0.98180639  0.73599786  0.00496333    -0.10130
C1026       C  0.98205352  0.74049675  0.98845486    -0.11690
C1027       C  0.48182494  0.98575674  0.00499622    -0.10130
C1028       C  0.48206117  0.99051264  0.98848883    -0.11690
C1029       C  0.62381174  0.55196780  0.05863658    -0.10130
C1030       C  0.59054139  0.54810602  0.05860478    -0.11690
C1031       C  0.87329670  0.69017107  0.05983360    -0.10130
C1032       C  0.84098654  0.66185989  0.05981167    -0.11690
C1033       C  0.87353221  0.67646157  0.93487646    -0.10130
C1034       C  0.84025957  0.67284321  0.93488217    -0.11690
C1035       C  0.62302205  0.56456770  0.93364859    -0.10130
C1036       C  0.59071004  0.53628692  0.93364463    -0.11690
C1037       C  0.73173535  0.61081037  0.98850052    -0.10130
C1038       C  0.73208801  0.61552814  0.00500622    -0.11690
C1039       C  0.09054923  0.79809190  0.05856927    -0.10130
C1040       C  0.12382241  0.80164104  0.05861300    -0.11690
C1041       C  0.34105919  0.90992234  0.05985894    -0.10130
C1042       C  0.37336714  0.93826246  0.05987905    -0.11690
C1043       C  0.37350677  0.92715627  0.93489827    -0.10130
C1044       C  0.34023571  0.92336329  0.93490474    -0.11690
C1045       C  0.12305988  0.81352497  0.93366552    -0.10130
C1046       C  0.09075393  0.78515263  0.93364443    -0.11690
C1047       C  0.23214531  0.86552438  0.00504111    -0.10130
C1048       C  0.23177750  0.86091581  0.98853496    -0.11690
C1049       C  0.48186173  0.73607156  0.50499087    -0.10130
C1050       C  0.48238106  0.74097949  0.48848596    -0.11690
C1051       C  0.37290094  0.68814247  0.55985066    -0.10130
C1052       C  0.34059732  0.65974304  0.55988033    -0.11690
C1053       C  0.34109982  0.67331905  0.43492587    -0.10130
C1054       C  0.37437036  0.67715164  0.43487292    -0.11690
C1055       C  0.23212091  0.61084576  0.48852891    -0.10130
C1056       C  0.23220617  0.61528072  0.50503705    -0.11690
C1057       C  0.09008482  0.54790460  0.55860957    -0.10130
C1058       C  0.12335714  0.55156838  0.55860034    -0.11690
C1059       C  0.09154034  0.53692746  0.43366074    -0.10130
C1060       C  0.12385594  0.56516345  0.43363901    -0.11690
C1061       C  0.98239230  0.99111747  0.48845421    -0.10130
C1062       C  0.98187884  0.98622609  0.50495916    -0.11690
C1063       C  0.87431914  0.92817660  0.43485068    -0.10130
C1064       C  0.84104619  0.92459675  0.43490839    -0.11690
C1065       C  0.62378929  0.81682465  0.43363186    -0.10130
C1066       C  0.59148670  0.78840942  0.43366805    -0.11690
C1067       C  0.59004138  0.79879455  0.55861260    -0.10130
C1068       C  0.62331278  0.80254378  0.55859489    -0.11690
C1069       C  0.84057013  0.91036571  0.55983753    -0.10130
C1070       C  0.87288444  0.93861958  0.55980648    -0.11690
C1071       C  0.73205184  0.86195910  0.48850521    -0.10130
C1072       C  0.73213706  0.86630747  0.50501365    -0.11690
C1073       C  0.98154719  0.66247082  0.86361138    -0.10130
C1074       C  0.98155754  0.68347007  0.87986690    -0.11690
C1075       C  0.98198186  0.55810907  0.62987560    -0.10130
C1076       C  0.98200117  0.53786207  0.61360112    -0.11690
C1077       C  0.98184320  0.60595590  0.75501803    -0.10130
C1078       C  0.98147711  0.61061384  0.73851077    -0.11690
C1079       C  0.73231407  0.68455591  0.86360279    -0.10130
C1080       C  0.73230590  0.66412997  0.87987415    -0.11690
C1081       C  0.87350500  0.67049784  0.80860650    -0.10130
C1082       C  0.84023580  0.67444807  0.80859131    -0.11690
C1083       C  0.73124342  0.78822236  0.62986038    -0.10130
C1084       C  0.73124933  0.80914355  0.61360150    -0.11690
C1085       C  0.84046310  0.68665314  0.68362314    -0.10130
C1086       C  0.87275908  0.65814886  0.68363956    -0.11690
C1087       C  0.73164498  0.73751408  0.75497217    -0.10130
C1088       C  0.73188244  0.73282034  0.73846577    -0.11690
C1089       C  0.48199898  0.80898447  0.62989373    -0.10130
C1090       C  0.48200518  0.78852537  0.61362453    -0.11690
C1091       C  0.62330224  0.79674131  0.68488472    -0.10130
C1092       C  0.59003126  0.80051549  0.68488519    -0.11690
C1093       C  0.48156293  0.91457037  0.86361911    -0.10130
C1094       C  0.48153730  0.93536907  0.87987980    -0.11690
C1095       C  0.59079169  0.81350054  0.80984532    -0.10130
C1096       C  0.62309363  0.78507297  0.80984116    -0.11690
C1097       C  0.48198767  0.85870574  0.75501869    -0.10130
C1098       C  0.48162153  0.86326862  0.73851098    -0.11690
C1099       C  0.23122612  0.53758801  0.62988808    -0.10130
C1100       C  0.23124605  0.55850316  0.61362908    -0.11690
C1101       C  0.12319533  0.54447350  0.68489491    -0.10130
C1102       C  0.08992288  0.54811220  0.68489322    -0.11690
C1103       C  0.34048272  0.93732430  0.68366212    -0.10130
C1104       C  0.37280527  0.90918056  0.68367404    -0.11690
C1105       C  0.23230738  0.93376274  0.86362748    -0.10130
C1106       C  0.23229993  0.91344329  0.87990137    -0.11690
C1107       C  0.37356626  0.92207704  0.80861483    -0.10130
C1108       C  0.34029213  0.92553920  0.80860805    -0.11690
C1109       C  0.12298355  0.53211835  0.80984907    -0.10130
C1110       C  0.09066683  0.56033895  0.80984533    -0.11690
C1111       C  0.23158439  0.98643927  0.75499488    -0.10130
C1112       C  0.23181861  0.98177163  0.73848857    -0.11690
C1113       C  0.23350017  0.66503262  0.37991196    -0.10130
C1114       C  0.23367560  0.68561725  0.36364486    -0.11690
C1115       C  0.23241394  0.78773144  0.12989278    -0.10130
C1116       C  0.23219012  0.80845680  0.11362945    -0.11690
C1117       C  0.23333154  0.73977953  0.25502633    -0.10130
C1118       C  0.23355208  0.73496757  0.23852077    -0.11690
C1119       C  0.48293152  0.66637184  0.36360108    -0.10130
C1120       C  0.48273795  0.68695514  0.37986693    -0.11690
C1121       C  0.37516473  0.67365249  0.30860132    -0.10130
C1122       C  0.34189072  0.67712889  0.30862241    -0.11690
C1123       C  0.48319038  0.55888948  0.12989290    -0.10130
C1124       C  0.48296040  0.53820286  0.11362977    -0.11690
C1125       C  0.34200696  0.68769368  0.18365589    -0.10130
C1126       C  0.37432791  0.65952595  0.18367940    -0.11690
C1127       C  0.48334577  0.61632589  0.23847877    -0.10130
C1128       C  0.48372648  0.61191312  0.25498714    -0.11690
C1129       C  0.98273624  0.93635800  0.37984229    -0.10130
C1130       C  0.98293591  0.91579159  0.36357593    -0.11690
C1131       C  0.09238152  0.81443312  0.30984075    -0.10130
C1132       C  0.12467444  0.78588702  0.30984825    -0.11690
C1133       C  0.98293873  0.78988552  0.11358218    -0.10130
C1134       C  0.98317983  0.81061864  0.12984415    -0.11690
C1135       C  0.09155806  0.80152961  0.18484549    -0.10130
C1136       C  0.12482612  0.79747641  0.18489228    -0.11690
C1137       C  0.98377098  0.86253065  0.25494887    -0.10130
C1138       C  0.98339898  0.86712376  0.23844099    -0.11690
C1139       C  0.73348437  0.91701922  0.37989847    -0.10130
C1140       C  0.73370274  0.93782718  0.36363720    -0.11690
C1141       C  0.84202506  0.93023021  0.30861713    -0.10130
C1142       C  0.87529436  0.92629269  0.30857927    -0.11690
C1143       C  0.62480207  0.53899257  0.30984460    -0.10130
C1144       C  0.59247627  0.56709307  0.30984505    -0.11690
C1145       C  0.73219655  0.56088523  0.11362046    -0.10130
C1146       C  0.73244366  0.54048689  0.12989192    -0.11690
C1147       C  0.62492379  0.54984145  0.18493197    -0.10130
C1148       C  0.59164872  0.55320055  0.18488906    -0.11690
C1149       C  0.87448196  0.91369686  0.18363916    -0.10130
C1150       C  0.84218400  0.94217482  0.18362440    -0.11690
C1151       C  0.73356438  0.99396257  0.25503957    -0.10130
C1152       C  0.73379485  0.98919843  0.23853388    -0.11690
loop_ 
_geom_bond_atom_site_label_1 
_geom_bond_atom_site_label_2 
_geom_bond_distance 
_geom_bond_site_symmetry_2 
_ccdc_geom_bond_type 
O1           Ni9   1.932       .  S
O1           C11   1.284       .  A
O2           Ni9   1.933       .  S
O2          C588   1.284   1_545  A
O3           Ni9   1.902       .  S
O3           C13   1.274       .  A
O4           Ni9   1.901       .  S
O4          C590   1.274   1_545  A
O5          Ni10   1.932       .  S
O5           C14   1.284       .  A
O6          Ni10   1.933       .  S
O6          C589   1.284       .  A
O7          Ni10   1.903       .  S
O7           C12   1.275       .  A
O8         Ni586   1.900       .  S
O8           C11   1.274   1_565  A
Ni9        Ni586   2.393   1_545  S
Ni10        O584   1.900       .  S
Ni10       Ni585   2.393       .  S
C11         C571   1.433       .  S
C12         O578   1.284       .  A
C12         C574   1.435       .  S
C13         O582   1.284   1_545  A
C13         C570   1.435       .  S
C14         O580   1.274       .  A
C14         C576   1.434       .  S
O15         Ni23   1.932       .  S
O15          C25   1.284       .  A
O16         Ni23   1.933       .  S
O16         C602   1.284       .  A
O17         Ni23   1.901       .  S
O17          C27   1.274       .  A
O18         Ni23   1.902       .  S
O18          C28   1.274       .  A
O19        Ni600   1.933       .  S
O19          C28   1.284       .  A
O20         Ni24   1.932       .  S
O20         C603   1.284   1_545  A
O21         Ni24   1.903       .  S
O21          C26   1.275       .  A
O22        Ni600   1.900       .  S
O22          C25   1.274       .  A
Ni23       Ni600   2.393       .  S
Ni24        O595   1.933       .  S
Ni24        O598   1.900       .  S
Ni24       Ni599   2.393   1_545  S
C25         C565   1.433       .  S
C26         O592   1.284   1_545  A
C26         C567   1.435       .  S
C27         O596   1.284       .  A
C27         C575   1.434       .  S
C28         C564   1.435       .  S
O29         Ni37   1.932   1_455  S
O29          C39   1.284       .  A
O30         Ni37   1.933       .  S
O30          C40   1.284       .  A
O31         Ni37   1.902       .  S
O31          C41   1.274       .  A
O32         Ni37   1.901       .  S
O32          C42   1.274       .  A
O33         Ni38   1.933       .  S
O33          C42   1.284       .  A
O34         Ni38   1.933       .  S
O34          C41   1.284       .  A
O35         Ni38   1.903       .  S
O35          C40   1.275       .  A
O36         Ni38   1.900   1_455  S
O36          C39   1.274       .  A
Ni37        Ni38   2.393       .  S
C39         C559   1.433       .  S
C40         C573   1.435       .  S
C41         C558   1.435       .  S
C42         C562   1.434       .  S
O43         Ni51   1.932       .  S
O43          C53   1.284       .  A
O44         Ni51   1.933   1_455  S
O44          C54   1.284       .  A
O45         Ni51   1.901       .  S
O45          C55   1.274       .  A
O46         Ni51   1.902       .  S
O46          C56   1.274       .  A
O47         Ni52   1.933       .  S
O47          C56   1.284       .  A
O48         Ni52   1.932       .  S
O48          C55   1.284       .  A
O49         Ni52   1.903   1_455  S
O49          C54   1.275       .  A
O50         Ni52   1.900       .  S
O50          C53   1.274       .  A
Ni51        Ni52   2.393       .  S
C53         C566   1.433       .  S
C54         C555   1.435       .  S
C55         C561   1.434       .  S
C56         C554   1.435       .  S
O57         Ni65   1.932       .  S
O57          C67   1.284   1_565  A
O58         Ni65   1.933   1_545  S
O58          C68   1.284       .  A
O59         Ni65   1.902       .  S
O59          C69   1.274   1_565  A
O60         Ni65   1.901   1_545  S
O60          C70   1.274       .  A
O61         Ni66   1.932       .  S
O61          C70   1.284       .  A
O62         Ni66   1.933       .  S
O62          C69   1.284       .  A
O63         Ni66   1.903       .  S
O63          C68   1.275       .  A
O64         Ni66   1.900       .  S
O64          C67   1.274       .  A
Ni65        Ni66   2.393   1_565  S
C67         C572   1.433       .  S
C68         C550   1.435       .  S
C69         C547   1.435       .  S
C70         C551   1.434       .  S
O71         Ni79   1.932       .  S
O71          C81   1.284       .  A
O72         Ni79   1.933       .  S
O72          C82   1.284       .  A
O73         Ni79   1.901       .  S
O73          C83   1.274       .  A
O74         Ni79   1.902       .  S
O74          C84   1.274       .  A
O75         Ni80   1.933       .  S
O75          C84   1.284       .  A
O76         Ni80   1.932       .  S
O76          C83   1.284       .  A
O77         Ni80   1.903   1_565  S
O77          C82   1.275   1_565  A
O78         Ni80   1.900       .  S
O78          C81   1.274       .  A
Ni79        Ni80   2.393       .  S
C81         C545   1.433       .  S
C82         C568   1.435       .  S
C83         C552   1.434       .  S
C84         C543   1.435       .  S
O85         Ni93   1.932       .  S
O85          C95   1.284       .  A
O86         Ni93   1.933       .  S
O86          C96   1.284       .  A
O87         Ni93   1.902       .  S
O87          C97   1.274       .  A
O88         Ni93   1.901       .  S
O88          C98   1.274       .  A
O89         Ni94   1.932       .  S
O89          C98   1.284       .  A
O90         Ni94   1.933       .  S
O90          C97   1.284       .  A
O91         Ni94   1.903       .  S
O91          C96   1.275       .  A
O92         Ni94   1.900       .  S
O92          C95   1.274       .  A
Ni93        Ni94   2.393       .  S
C95         C560   1.433       .  S
C96         C549   1.435       .  S
C97         C539   1.435       .  S
C98         C542   1.434       .  S
O99        Ni107   1.932       .  S
O99         C109   1.284       .  A
O100       Ni107   1.933       .  S
O100        C110   1.284       .  A
O101       Ni107   1.901       .  S
O101        C111   1.274       .  A
O102       Ni107   1.902       .  S
O102        C112   1.274       .  A
O103       Ni108   1.933       .  S
O103        C112   1.284       .  A
O104       Ni108   1.932       .  S
O104        C111   1.284       .  A
O105       Ni108   1.903       .  S
O105        C110   1.275       .  A
O106       Ni108   1.900       .  S
O106        C109   1.274       .  A
Ni107      Ni108   2.393       .  S
C109        C546   1.433       .  S
C110        C556   1.435       .  S
C111        C541   1.434       .  S
C112        C538   1.435       .  S
O113       Ni121   1.932       .  S
O113        C123   1.284       .  A
O114       Ni121   1.933       .  S
O114        C700   1.284       .  A
O115       Ni121   1.901       .  S
O115        C125   1.274       .  A
O116       Ni121   1.902       .  S
O116        C126   1.274       .  A
O117       Ni122   1.933       .  S
O117        C126   1.284       .  A
O118       Ni698   1.932       .  S
O118        C701   1.284   1_545  A
O119       Ni698   1.903       .  S
O119        C124   1.275       .  A
O120       Ni122   1.900       .  S
O120        C123   1.274       .  A
Ni121      Ni122   2.393       .  S
Ni122       O694   1.932       .  S
Ni122       O695   1.903       .  S
C123        C532   1.433       .  S
C124        O690   1.284   1_545  A
C124        C533   1.435       .  S
C125        O694   1.284       .  A
C125        C535   1.434       .  S
C126        C529   1.435       .  S
O127       Ni135   1.932       .  S
O127        C137   1.284       .  A
O128       Ni711   1.933       .  S
O128        C138   1.284       .  A
O129       Ni135   1.902       .  S
O129        C139   1.274       .  A
O130       Ni135   1.901       .  S
O130        C716   1.274   1_545  A
O131       Ni136   1.932       .  S
O131        C140   1.284       .  A
O132       Ni136   1.933       .  S
O132        C715   1.284       .  A
O133       Ni136   1.903       .  S
O133        C138   1.275       .  A
O134       Ni136   1.900       .  S
O134        C713   1.274       .  A
Ni135       O704   1.933       .  S
Ni135      Ni712   2.393   1_545  S
Ni136      Ni711   2.393       .  S
C137        O710   1.274   1_545  A
C137        C525   1.433       .  S
C138        C527   1.435       .  S
C139        O708   1.284   1_545  A
C139        C523   1.435       .  S
C140        O706   1.274       .  A
C140        C536   1.434       .  S
O141       Ni149   1.932       .  S
O141        C151   1.284       .  A
O142       Ni149   1.933       .  S
O142        C152   1.284       .  A
O143       Ni149   1.901       .  S
O143        C153   1.274       .  A
O144       Ni149   1.902       .  S
O144        C154   1.274       .  A
O145       Ni150   1.933       .  S
O145        C154   1.284       .  A
O146       Ni150   1.932       .  S
O146        C153   1.284       .  A
O147       Ni150   1.903       .  S
O147        C152   1.275       .  A
O148       Ni150   1.900       .  S
O148        C151   1.274       .  A
Ni149      Ni150   2.393       .  S
C151        C531   1.433       .  S
C152        C519   1.435       .  S
C153        C521   1.434       .  S
C154        C517   1.435       .  S
O155       Ni163   1.932       .  S
O155        C165   1.284       .  A
O156       Ni163   1.933       .  S
O156        C166   1.284       .  A
O157       Ni163   1.902       .  S
O157        C167   1.274       .  A
O158       Ni163   1.901       .  S
O158        C168   1.274       .  A
O159       Ni164   1.932       .  S
O159        C168   1.284       .  A
O160       Ni164   1.933       .  S
O160        C167   1.284       .  A
O161       Ni164   1.903       .  S
O161        C166   1.275       .  A
O162       Ni164   1.900       .  S
O162        C165   1.274       .  A
Ni163      Ni164   2.393       .  S
C165        C516   1.433       .  S
C166        C528   1.435       .  S
C167        C513   1.435       .  S
C168        C522   1.434       .  S
O169       Ni177   1.932       .  S
O169        C179   1.284       .  A
O170       Ni177   1.933       .  S
O170        C180   1.284       .  A
O171       Ni177   1.902       .  S
O171        C181   1.274       .  A
O172       Ni177   1.901       .  S
O172        C182   1.274       .  A
O173       Ni178   1.932       .  S
O173        C182   1.284       .  A
O174       Ni178   1.933       .  S
O174        C181   1.284       .  A
O175       Ni178   1.903       .  S
O175        C180   1.275       .  A
O176       Ni178   1.900       .  S
O176        C179   1.274       .  A
Ni177      Ni178   2.393       .  S
C179        C515   1.433       .  S
C180        C509   1.435       .  S
C181        C507   1.435       .  S
C182        C512   1.434       .  S
O183       Ni191   1.932       .  S
O183        C193   1.284       .  A
O184       Ni191   1.933       .  S
O184        C194   1.284       .  A
O185       Ni191   1.901       .  S
O185        C195   1.274       .  A
O186       Ni191   1.902       .  S
O186        C196   1.274       .  A
O187       Ni192   1.933       .  S
O187        C196   1.284       .  A
O188       Ni192   1.932       .  S
O188        C195   1.284       .  A
O189       Ni192   1.903       .  S
O189        C194   1.275       .  A
O190       Ni192   1.900       .  S
O190        C193   1.274       .  A
Ni191      Ni192   2.393       .  S
C193        C506   1.433       .  S
C194        C520   1.435       .  S
C195        C511   1.434       .  S
C196        C503   1.435       .  S
O197       Ni205   1.932   1_455  S
O197        C207   1.284   1_565  A
O198       Ni205   1.933   1_545  S
O198        C208   1.284       .  A
O199       Ni205   1.902       .  S
O199        C209   1.274   1_565  A
O200       Ni205   1.901       .  S
O200        C210   1.274   1_565  A
O201       Ni206   1.932       .  S
O201        C210   1.284       .  A
O202       Ni206   1.933       .  S
O202        C209   1.284       .  A
O203       Ni206   1.903       .  S
O203        C208   1.275       .  A
O204       Ni206   1.900   1_455  S
O204        C207   1.274       .  A
Ni205      Ni206   2.393   1_565  S
C207        C526   1.433       .  S
C208        C510   1.435       .  S
C209        C499   1.435       .  S
C210        C502   1.434       .  S
O211       Ni219   1.932       .  S
O211        C221   1.284       .  A
O212       Ni219   1.933   1_455  S
O212        C222   1.284       .  A
O213       Ni219   1.901       .  S
O213        C223   1.274       .  A
O214       Ni219   1.902       .  S
O214        C224   1.274       .  A
O215       Ni220   1.933       .  S
O215        C224   1.284       .  A
O216       Ni220   1.933       .  S
O216        C223   1.284       .  A
O217       Ni220   1.903   1_465  S
O217        C222   1.275   1_565  A
O218       Ni220   1.900       .  S
O218        C221   1.274       .  A
Ni219      Ni220   2.393       .  S
C221        C505   1.433       .  S
C222        C534   1.435       .  S
C223        C501   1.434       .  S
C224        C497   1.435       .  S
O225       Ni233   1.932       .  S
O225        C235   1.284       .  A
O226       Ni233   1.933       .  S
O226        C236   1.284       .  A
O227       Ni233   1.902       .  S
O227        C237   1.274       .  A
O228       Ni233   1.901       .  S
O228        C238   1.274       .  A
O229       Ni234   1.932       .  S
O229        C238   1.284       .  A
O230       Ni234   1.933       .  S
O230        C237   1.284       .  A
O231       Ni234   1.903       .  S
O231        C236   1.275       .  A
O232       Ni234   1.900       .  S
O232        C235   1.274       .  A
Ni233      Ni234   2.393       .  S
C235        C492   1.433       .  S
C236        C493   1.435       .  S
C237        C508   1.435       .  S
C238        C496   1.434       .  S
O239       Ni247   1.932       .  S
O239        C249   1.284       .  A
O240       Ni247   1.933       .  S
O240        C250   1.284       .  A
O241       Ni247   1.901       .  S
O241        C251   1.274       .  A
O242       Ni247   1.902       .  S
O242        C252   1.274       .  A
O243       Ni248   1.933       .  S
O243        C252   1.284       .  A
O244       Ni248   1.932       .  S
O244        C251   1.284       .  A
O245       Ni248   1.903       .  S
O245        C250   1.275       .  A
O246       Ni248   1.900       .  S
O246        C249   1.274       .  A
Ni247      Ni248   2.393       .  S
C249        C488   1.433       .  S
C250        C489   1.435       .  S
C251        C495   1.434       .  S
C252        C563   1.435       .  S
O253       Ni261   1.932       .  S
O253        C263   1.284       .  A
O254       Ni261   1.933   1_455  S
O254        C840   1.284       .  A
O255       Ni261   1.901       .  S
O255        C265   1.274       .  A
O256       Ni261   1.902       .  S
O256        C266   1.274       .  A
O257       Ni262   1.933       .  S
O257        C266   1.284       .  A
O258       Ni838   1.932       .  S
O258        C841   1.284   1_545  A
O259       Ni838   1.903   1_455  S
O259        C264   1.275       .  A
O260       Ni262   1.900       .  S
O260        C263   1.274       .  A
Ni261      Ni262   2.393       .  S
Ni262       O834   1.932       .  S
Ni262       O835   1.903   1_655  S
C263        C487   1.433       .  S
C264        O830   1.284   1_545  A
C264        C483   1.435       .  S
C265        O834   1.284       .  A
C265        C485   1.434       .  S
C266        C553   1.435       .  S
O267       Ni275   1.932   1_455  S
O267        C277   1.284       .  A
O268       Ni851   1.933       .  S
O268        C278   1.284       .  A
O269       Ni275   1.902       .  S
O269        C279   1.274       .  A
O270       Ni275   1.901       .  S
O270        C856   1.274   1_545  A
O271       Ni276   1.932       .  S
O271        C280   1.284       .  A
O272       Ni276   1.933       .  S
O272        C855   1.284       .  A
O273       Ni276   1.903       .  S
O273        C278   1.275       .  A
O274       Ni852   1.900   1_455  S
O274        C277   1.274   1_565  A
Ni275       O844   1.933       .  S
Ni275      Ni852   2.393   1_545  S
Ni276       O850   1.900   1_655  S
Ni276      Ni851   2.393       .  S
C277        C481   1.433       .  S
C278        C494   1.435       .  S
C279        O848   1.284   1_545  A
C279        C500   1.435       .  S
C280        O846   1.274       .  A
C280        C486   1.434       .  S
O281       Ni289   1.932       .  S
O281        C291   1.284       .  A
O282       Ni289   1.933       .  S
O282        C292   1.284       .  A
O283       Ni289   1.901       .  S
O283        C293   1.274       .  A
O284       Ni289   1.902       .  S
O284        C294   1.274       .  A
O285       Ni290   1.933       .  S
O285        C294   1.284       .  A
O286       Ni290   1.932       .  S
O286        C293   1.284       .  A
O287       Ni290   1.903   1_565  S
O287        C292   1.275   1_565  A
O288       Ni290   1.900       .  S
O288        C291   1.274       .  A
Ni289      Ni290   2.393       .  S
C291        C477   1.433       .  S
C292        C484   1.435       .  S
C293        C479   1.434       .  S
C294        C537   1.435       .  S
O295       Ni303   1.932       .  S
O295        C305   1.284   1_565  A
O296       Ni303   1.933   1_545  S
O296        C306   1.284       .  A
O297       Ni303   1.902       .  S
O297        C307   1.274   1_565  A
O298       Ni303   1.901   1_545  S
O298        C308   1.274       .  A
O299       Ni304   1.932       .  S
O299        C308   1.284       .  A
O300       Ni304   1.933       .  S
O300        C307   1.284       .  A
O301       Ni304   1.903       .  S
O301        C306   1.275       .  A
O302       Ni304   1.900       .  S
O302        C305   1.274       .  A
Ni303      Ni304   2.393   1_565  S
C305        C482   1.433       .  S
C306        C476   1.435       .  S
C307        C524   1.435       .  S
C308        C480   1.434       .  S
O309       Ni317   1.932       .  S
O309        C319   1.284       .  A
O310       Ni317   1.933       .  S
O310        C320   1.284       .  A
O311       Ni317   1.902       .  S
O311        C321   1.274       .  A
O312       Ni317   1.901       .  S
O312        C322   1.274       .  A
O313       Ni318   1.932       .  S
O313        C322   1.284       .  A
O314       Ni318   1.933       .  S
O314        C321   1.284       .  A
O315       Ni318   1.903       .  S
O315        C320   1.275       .  A
O316       Ni318   1.900       .  S
O316        C319   1.274       .  A
Ni317      Ni318   2.393       .  S
C319        C491   1.433       .  S
C320        C475   1.435       .  S
C321        C514   1.435       .  S
C322        C473   1.434       .  S
O323       Ni331   1.932       .  S
O323        C333   1.284       .  A
O324       Ni331   1.933       .  S
O324        C334   1.284       .  A
O325       Ni331   1.901       .  S
O325        C335   1.274       .  A
O326       Ni331   1.902       .  S
O326        C336   1.274       .  A
O327       Ni332   1.933       .  S
O327        C336   1.284       .  A
O328       Ni332   1.932       .  S
O328        C335   1.284       .  A
O329       Ni332   1.903       .  S
O329        C334   1.275       .  A
O330       Ni332   1.900       .  S
O330        C333   1.274       .  A
Ni331      Ni332   2.393       .  S
C333        C478   1.433       .  S
C334        C490   1.435       .  S
C335        C474   1.434       .  S
C336        C544   1.435       .  S
O337       Ni345   1.932       .  S
O337        C347   1.284       .  A
O338       Ni345   1.933       .  S
O338        C348   1.284       .  A
O339       Ni345   1.901       .  S
O339        C349   1.274       .  A
O340       Ni345   1.902       .  S
O340        C350   1.274       .  A
O341       Ni346   1.933       .  S
O341        C350   1.284       .  A
O342       Ni346   1.932       .  S
O342        C349   1.284       .  A
O343       Ni346   1.903       .  S
O343        C348   1.275       .  A
O344       Ni346   1.900       .  S
O344        C347   1.274       .  A
Ni345      Ni346   2.393       .  S
C347        C468   1.433       .  S
C348        C469   1.435       .  S
C349        C472   1.434       .  S
C350        C530   1.435       .  S
O351       Ni359   1.932       .  S
O351        C361   1.284       .  A
O352       Ni359   1.933       .  S
O352        C362   1.284       .  A
O353       Ni359   1.902       .  S
O353        C363   1.274       .  A
O354       Ni359   1.901       .  S
O354        C364   1.274       .  A
O355       Ni360   1.932       .  S
O355        C364   1.284       .  A
O356       Ni360   1.933       .  S
O356        C363   1.284       .  A
O357       Ni360   1.903       .  S
O357        C362   1.275       .  A
O358       Ni360   1.900       .  S
O358        C361   1.274       .  A
Ni359      Ni360   2.393       .  S
C361        C464   1.433       .  S
C362        C465   1.435       .  S
C363        C540   1.435       .  S
C364        C471   1.434       .  S
O365       Ni373   1.932       .  S
O365        C375   1.284       .  A
O366       Ni373   1.933       .  S
O366        C376   1.284       .  A
O367       Ni373   1.901       .  S
O367        C377   1.274       .  A
O368       Ni373   1.902       .  S
O368        C378   1.274       .  A
O369       Ni374   1.933       .  S
O369        C378   1.284       .  A
O370       Ni374   1.932       .  S
O370        C377   1.284       .  A
O371       Ni374   1.903   1_565  S
O371        C376   1.275   1_565  A
O372       Ni374   1.900       .  S
O372        C375   1.274       .  A
Ni373      Ni374   2.393       .  S
C375        C458   1.433       .  S
C376        C459   1.435       .  S
C377        C461   1.434       .  S
C378        C504   1.435       .  S
O379       Ni387   1.932       .  S
O379        C389   1.284   1_565  A
O380       Ni387   1.933   1_545  S
O380        C390   1.284       .  A
O381       Ni387   1.902       .  S
O381        C391   1.274   1_565  A
O382       Ni387   1.901   1_545  S
O382        C392   1.274       .  A
O383       Ni388   1.932       .  S
O383        C392   1.284       .  A
O384       Ni388   1.933       .  S
O384        C391   1.284       .  A
O385       Ni388   1.903       .  S
O385        C390   1.275       .  A
O386       Ni388   1.900       .  S
O386        C389   1.274       .  A
Ni387      Ni388   2.393   1_565  S
C389        C453   1.433       .  S
C390        C456   1.435       .  S
C391        C569   1.435       .  S
C392        C462   1.434       .  S
O393       Ni401   1.932       .  S
O393        C403   1.284       .  A
O394       Ni401   1.933       .  S
O394        C980   1.284       .  A
O395       Ni401   1.901       .  S
O395        C405   1.274       .  A
O396       Ni401   1.902       .  S
O396        C406   1.274       .  A
O397       Ni402   1.933       .  S
O397        C406   1.284       .  A
O398       Ni978   1.933       .  S
O398        C981   1.284   1_545  A
O399       Ni978   1.903       .  S
O399        C404   1.275       .  A
O400       Ni402   1.900       .  S
O400        C403   1.274       .  A
Ni401      Ni402   2.393       .  S
Ni402       O974   1.933       .  S
Ni402       O975   1.903       .  S
C403        C467   1.433       .  S
C404        O970   1.284   1_545  A
C404        C460   1.435       .  S
C405        O974   1.284       .  A
C405        C452   1.434       .  S
C406        C518   1.435       .  S
O407       Ni415   1.932       .  S
O407        C417   1.284       .  A
O408       Ni991   1.933       .  S
O408        C418   1.284       .  A
O409       Ni415   1.902       .  S
O409        C419   1.274       .  A
O410       Ni415   1.901       .  S
O410        C996   1.274   1_545  A
O411       Ni416   1.932       .  S
O411        C420   1.284       .  A
O412       Ni416   1.933       .  S
O412        C995   1.284       .  A
O413       Ni416   1.903       .  S
O413        C418   1.275       .  A
O414       Ni992   1.900       .  S
O414        C417   1.274   1_565  A
Ni415       O984   1.933       .  S
Ni415      Ni992   2.393   1_545  S
Ni416       O990   1.900       .  S
Ni416      Ni991   2.393       .  S
C417        C454   1.433       .  S
C418        C466   1.435       .  S
C419        O988   1.284   1_545  A
C419        C548   1.435       .  S
C420        O986   1.274       .  A
C420        C451   1.434       .  S
O421       Ni429   1.932       .  S
O421        C431   1.284       .  A
O422       Ni429   1.933   1_455  S
O422        C432   1.284       .  A
O423       Ni429   1.901       .  S
O423        C433   1.274       .  A
O424       Ni429   1.902       .  S
O424        C434   1.274       .  A
O425       Ni430   1.933       .  S
O425        C434   1.284       .  A
O426       Ni430   1.932       .  S
O426        C433   1.284       .  A
O427       Ni430   1.903   1_455  S
O427        C432   1.275       .  A
O428       Ni430   1.900       .  S
O428        C431   1.274       .  A
Ni429      Ni430   2.393       .  S
C431        C457   1.433       .  S
C432        C470   1.435       .  S
C433        C450   1.434       .  S
C434        C498   1.435       .  S
O435       Ni443   1.932   1_455  S
O435        C445   1.284       .  A
O436       Ni443   1.933       .  S
O436        C446   1.284       .  A
O437       Ni443   1.902       .  S
O437        C447   1.274       .  A
O438       Ni443   1.901       .  S
O438        C448   1.274       .  A
O439       Ni444   1.932       .  S
O439        C448   1.284       .  A
O440       Ni444   1.933       .  S
O440        C447   1.284       .  A
O441       Ni444   1.903       .  S
O441        C446   1.275       .  A
O442       Ni444   1.900   1_455  S
O442        C445   1.274       .  A
Ni443      Ni444   2.393       .  S
C445        C463   1.433       .  S
C446        C455   1.435       .  S
C447        C557   1.435       .  S
C448        C449   1.434       .  S
C449        C450   1.205   1_554  T
C451        C452   1.205   1_554  T
C453        C454   1.205       .  T
C455        C456   1.206       .  T
C457        C458   1.205       .  T
C459        C460   1.206       .  T
C461        C462   1.205   1_556  T
C463        C464   1.205       .  T
C465        C466   1.206       .  T
C467        C468   1.205       .  T
C469        C470   1.206       .  T
C471        C472   1.205   1_554  T
C473        C474   1.205       .  T
C475        C476   1.206       .  T
C477        C478   1.205       .  T
C479        C480   1.205       .  T
C481        C482   1.205       .  T
C483        C484   1.206       .  T
C485        C486   1.205       .  T
C487        C488   1.205       .  T
C489        C490   1.206       .  T
C491        C492   1.205       .  T
C493        C494   1.206       .  T
C495        C496   1.205       .  T
C497        C498   1.206       .  T
C499        C500   1.206       .  T
C501        C502   1.205       .  T
C503        C504   1.206       .  T
C505        C506   1.205       .  T
C507        C508   1.206       .  T
C509        C510   1.206       .  T
C511        C512   1.205       .  T
C513        C514   1.206       .  T
C515        C516   1.205       .  T
C517        C518   1.206       .  T
C519        C520   1.206       .  T
C521        C522   1.205       .  T
C523        C524   1.206       .  T
C525        C526   1.205       .  T
C527        C528   1.206       .  T
C529        C530   1.206       .  T
C531        C532   1.205       .  T
C533        C534   1.206       .  T
C535        C536   1.205       .  T
C537        C538   1.206       .  T
C539        C540   1.206       .  T
C541        C542   1.205       .  T
C543        C544   1.206       .  T
C545        C546   1.205       .  T
C547        C548   1.206       .  T
C549        C550   1.206       .  T
C551        C552   1.205       .  T
C553        C554   1.206       .  T
C555        C556   1.206       .  T
C557        C558   1.206       .  T
C559        C560   1.205       .  T
C561        C562   1.206       .  T
C563        C564   1.206       .  T
C565        C566   1.205       .  T
C567        C568   1.206       .  T
C569        C570   1.206       .  T
C571        C572   1.205       .  T
C573        C574   1.206       .  T
C575        C576   1.205       .  T
O577       Ni585   1.932       .  S
O577        C587   1.284       .  A
O578       Ni585   1.933       .  S
O579       Ni585   1.902       .  S
O579        C589   1.274       .  A
O580       Ni585   1.901       .  S
O581       Ni586   1.932       .  S
O581        C590   1.284       .  A
O582       Ni586   1.933       .  S
O583       Ni586   1.903       .  S
O583        C588   1.275       .  A
O584        C587   1.274       .  A
C587       C1147   1.433       .  S
C588       C1150   1.435       .  S
C589       C1146   1.435       .  S
C590       C1152   1.434       .  S
O591       Ni599   1.932       .  S
O591        C601   1.284       .  A
O592       Ni599   1.933       .  S
O593       Ni599   1.901       .  S
O593        C603   1.274       .  A
O594       Ni599   1.902       .  S
O594        C604   1.274       .  A
O595        C604   1.284   1_545  A
O596       Ni600   1.932       .  S
O597       Ni600   1.903       .  S
O597        C602   1.275       .  A
O598        C601   1.274   1_545  A
C601       C1141   1.433       .  S
C602       C1143   1.435       .  S
C603       C1151   1.434       .  S
C604       C1140   1.435       .  S
O605       Ni613   1.932   1_455  S
O605        C615   1.284       .  A
O606       Ni613   1.933       .  S
O606        C616   1.284       .  A
O607       Ni613   1.902       .  S
O607        C617   1.274       .  A
O608       Ni613   1.901       .  S
O608        C618   1.274       .  A
O609       Ni614   1.933       .  S
O609        C618   1.284       .  A
O610       Ni614   1.933       .  S
O610        C617   1.284       .  A
O611       Ni614   1.903       .  S
O611        C616   1.275       .  A
O612       Ni614   1.900   1_455  S
O612        C615   1.274       .  A
Ni613      Ni614   2.393       .  S
C615       C1135   1.433       .  S
C616       C1149   1.435       .  S
C617       C1134   1.435       .  S
C618       C1138   1.434       .  S
O619       Ni627   1.932   1_545  S
O619        C629   1.284   1_545  A
O620       Ni627   1.933   1_455  S
O620        C630   1.284       .  A
O621       Ni627   1.901       .  S
O621        C631   1.274       .  A
O622       Ni627   1.902   1_545  S
O622        C632   1.274   1_545  A
O623       Ni628   1.933       .  S
O623        C632   1.284       .  A
O624       Ni628   1.932       .  S
O624        C631   1.284       .  A
O625       Ni628   1.903   1_455  S
O625        C630   1.275       .  A
O626       Ni628   1.900       .  S
O626        C629   1.274       .  A
Ni627      Ni628   2.393       .  S
C629       C1142   1.433       .  S
C630       C1131   1.435       .  S
C631       C1137   1.434       .  S
C632       C1130   1.435       .  S
O633       Ni641   1.932       .  S
O633        C643   1.284       .  A
O634       Ni641   1.933       .  S
O634        C644   1.284       .  A
O635       Ni641   1.902       .  S
O635        C645   1.274       .  A
O636       Ni641   1.901       .  S
O636        C646   1.274       .  A
O637       Ni642   1.932       .  S
O637        C646   1.284       .  A
O638       Ni642   1.933       .  S
O638        C645   1.284       .  A
O639       Ni642   1.903       .  S
O639        C644   1.275       .  A
O640       Ni642   1.900       .  S
O640        C643   1.274       .  A
Ni641      Ni642   2.393       .  S
C643       C1148   1.433       .  S
C644       C1126   1.435       .  S
C645       C1123   1.435       .  S
C646       C1127   1.434       .  S
O647       Ni655   1.932       .  S
O647        C657   1.284       .  A
O648       Ni655   1.933       .  S
O648        C658   1.284       .  A
O649       Ni655   1.901       .  S
O649        C659   1.274       .  A
O650       Ni655   1.902       .  S
O650        C660   1.274       .  A
O651       Ni656   1.933       .  S
O651        C660   1.284       .  A
O652       Ni656   1.932       .  S
O652        C659   1.284       .  A
O653       Ni656   1.903       .  S
O653        C658   1.275       .  A
O654       Ni656   1.900       .  S
O654        C657   1.274       .  A
Ni655      Ni656   2.393       .  S
C657       C1121   1.433       .  S
C658       C1144   1.435       .  S
C659       C1128   1.434       .  S
C660       C1119   1.435       .  S
O661       Ni669   1.932       .  S
O661        C671   1.284       .  A
O662       Ni669   1.933       .  S
O662        C672   1.284       .  A
O663       Ni669   1.902       .  S
O663        C673   1.274       .  A
O664       Ni669   1.901       .  S
O664        C674   1.274       .  A
O665       Ni670   1.932       .  S
O665        C674   1.284       .  A
O666       Ni670   1.933       .  S
O666        C673   1.284       .  A
O667       Ni670   1.903       .  S
O667        C672   1.275       .  A
O668       Ni670   1.900       .  S
O668        C671   1.274       .  A
Ni669      Ni670   2.393       .  S
C671       C1136   1.433       .  S
C672       C1125   1.435       .  S
C673       C1115   1.435       .  S
C674       C1118   1.434       .  S
O675       Ni683   1.932       .  S
O675        C685   1.284       .  A
O676       Ni683   1.933       .  S
O676        C686   1.284       .  A
O677       Ni683   1.901       .  S
O677        C687   1.274       .  A
O678       Ni683   1.902       .  S
O678        C688   1.274       .  A
O679       Ni684   1.933       .  S
O679        C688   1.284       .  A
O680       Ni684   1.932       .  S
O680        C687   1.284       .  A
O681       Ni684   1.903       .  S
O681        C686   1.275       .  A
O682       Ni684   1.900       .  S
O682        C685   1.274       .  A
Ni683      Ni684   2.393       .  S
C685       C1122   1.433       .  S
C686       C1132   1.435       .  S
C687       C1117   1.434       .  S
C688       C1114   1.435       .  S
O689       Ni697   1.932       .  S
O689        C699   1.284       .  A
O690       Ni697   1.933       .  S
O691       Ni697   1.901       .  S
O691        C701   1.274       .  A
O692       Ni697   1.902       .  S
O692        C702   1.274       .  A
O693       Ni698   1.933       .  S
O693        C702   1.284   1_545  A
O695        C700   1.275       .  A
O696       Ni698   1.900       .  S
O696        C699   1.274   1_545  A
Ni697      Ni698   2.393   1_565  S
C699       C1108   1.433       .  S
C700       C1109   1.435       .  S
C701       C1111   1.434       .  S
C702       C1105   1.435       .  S
O703       Ni711   1.932       .  S
O703        C713   1.284       .  A
O704        C714   1.284   1_545  A
O705       Ni711   1.902       .  S
O705        C715   1.274       .  A
O706       Ni711   1.901       .  S
O707       Ni712   1.932       .  S
O707        C716   1.284       .  A
O708       Ni712   1.933       .  S
O709       Ni712   1.903       .  S
O709        C714   1.275       .  A
O710       Ni712   1.900       .  S
C713       C1101   1.433       .  S
C714       C1103   1.435       .  S
C715       C1099   1.435       .  S
C716       C1112   1.434       .  S
O717       Ni725   1.932   1_545  S
O717        C727   1.284   1_545  A
O718       Ni725   1.933       .  S
O718        C728   1.284       .  A
O719       Ni725   1.901       .  S
O719        C729   1.274       .  A
O720       Ni725   1.902       .  S
O720        C730   1.274       .  A
O721       Ni726   1.933       .  S
O721        C730   1.284       .  A
O722       Ni726   1.932       .  S
O722        C729   1.284       .  A
O723       Ni726   1.903       .  S
O723        C728   1.275       .  A
O724       Ni726   1.900       .  S
O724        C727   1.274       .  A
Ni725      Ni726   2.393       .  S
C727       C1107   1.433       .  S
C728       C1095   1.435       .  S
C729       C1097   1.434       .  S
C730       C1093   1.435       .  S
O731       Ni739   1.932       .  S
O731        C741   1.284       .  A
O732       Ni739   1.933       .  S
O732        C742   1.284       .  A
O733       Ni739   1.902       .  S
O733        C743   1.274       .  A
O734       Ni739   1.901       .  S
O734        C744   1.274       .  A
O735       Ni740   1.932       .  S
O735        C744   1.284       .  A
O736       Ni740   1.933       .  S
O736        C743   1.284       .  A
O737       Ni740   1.903       .  S
O737        C742   1.275       .  A
O738       Ni740   1.900       .  S
O738        C741   1.274       .  A
Ni739      Ni740   2.393       .  S
C741       C1092   1.433       .  S
C742       C1104   1.435       .  S
C743       C1089   1.435       .  S
C744       C1098   1.434       .  S
O745       Ni753   1.932       .  S
O745        C755   1.284       .  A
O746       Ni753   1.933       .  S
O746        C756   1.284       .  A
O747       Ni753   1.902       .  S
O747        C757   1.274       .  A
O748       Ni753   1.901       .  S
O748        C758   1.274       .  A
O749       Ni754   1.932       .  S
O749        C758   1.284       .  A
O750       Ni754   1.933       .  S
O750        C757   1.284       .  A
O751       Ni754   1.903       .  S
O751        C756   1.275       .  A
O752       Ni754   1.900       .  S
O752        C755   1.274       .  A
Ni753      Ni754   2.393       .  S
C755       C1091   1.433       .  S
C756       C1085   1.435       .  S
C757       C1083   1.435       .  S
C758       C1088   1.434       .  S
O759       Ni767   1.932       .  S
O759        C769   1.284       .  A
O760       Ni767   1.933       .  S
O760        C770   1.284       .  A
O761       Ni767   1.901       .  S
O761        C771   1.274       .  A
O762       Ni767   1.902       .  S
O762        C772   1.274       .  A
O763       Ni768   1.933       .  S
O763        C772   1.284       .  A
O764       Ni768   1.932       .  S
O764        C771   1.284       .  A
O765       Ni768   1.903       .  S
O765        C770   1.275       .  A
O766       Ni768   1.900       .  S
O766        C769   1.274       .  A
Ni767      Ni768   2.393       .  S
C769       C1082   1.433       .  S
C770       C1096   1.435       .  S
C771       C1087   1.434       .  S
C772       C1079   1.435       .  S
O773       Ni781   1.932   1_455  S
O773        C783   1.284       .  A
O774       Ni781   1.933       .  S
O774        C784   1.284       .  A
O775       Ni781   1.902       .  S
O775        C785   1.274       .  A
O776       Ni781   1.901       .  S
O776        C786   1.274       .  A
O777       Ni782   1.932       .  S
O777        C786   1.284       .  A
O778       Ni782   1.933       .  S
O778        C785   1.284       .  A
O779       Ni782   1.903       .  S
O779        C784   1.275       .  A
O780       Ni782   1.900   1_455  S
O780        C783   1.274       .  A
Ni781      Ni782   2.393       .  S
C783       C1102   1.433       .  S
C784       C1086   1.435       .  S
C785       C1075   1.435       .  S
C786       C1078   1.434       .  S
O787       Ni795   1.932       .  S
O787        C797   1.284       .  A
O788       Ni795   1.933   1_455  S
O788        C798   1.284       .  A
O789       Ni795   1.901       .  S
O789        C799   1.274       .  A
O790       Ni795   1.902       .  S
O790        C800   1.274       .  A
O791       Ni796   1.933       .  S
O791        C800   1.284       .  A
O792       Ni796   1.933       .  S
O792        C799   1.284       .  A
O793       Ni796   1.903   1_455  S
O793        C798   1.275       .  A
O794       Ni796   1.900       .  S
O794        C797   1.274       .  A
Ni795      Ni796   2.393       .  S
C797       C1081   1.433       .  S
C798       C1110   1.435       .  S
C799       C1077   1.434       .  S
C800       C1073   1.435       .  S
O801       Ni809   1.932       .  S
O801        C811   1.284       .  A
O802       Ni809   1.933       .  S
O802        C812   1.284       .  A
O803       Ni809   1.902       .  S
O803        C813   1.274       .  A
O804       Ni809   1.901       .  S
O804        C814   1.274       .  A
O805       Ni810   1.932       .  S
O805        C814   1.284       .  A
O806       Ni810   1.933       .  S
O806        C813   1.284       .  A
O807       Ni810   1.903       .  S
O807        C812   1.275       .  A
O808       Ni810   1.900       .  S
O808        C811   1.274       .  A
Ni809      Ni810   2.393       .  S
C811       C1068   1.433       .  S
C812       C1069   1.435       .  S
C813       C1084   1.435       .  S
C814       C1072   1.434       .  S
O815       Ni823   1.932   1_545  S
O815        C825   1.284   1_545  A
O816       Ni823   1.933       .  S
O816        C826   1.284       .  A
O817       Ni823   1.901       .  S
O817        C827   1.274       .  A
O818       Ni823   1.902   1_545  S
O818        C828   1.274   1_545  A
O819       Ni824   1.933       .  S
O819        C828   1.284       .  A
O820       Ni824   1.932       .  S
O820        C827   1.284       .  A
O821       Ni824   1.903       .  S
O821        C826   1.275       .  A
O822       Ni824   1.900       .  S
O822        C825   1.274       .  A
Ni823      Ni824   2.393       .  S
C825       C1064   1.433       .  S
C826       C1065   1.435       .  S
C827       C1071   1.434       .  S
C828       C1139   1.435       .  S
O829       Ni837   1.932       .  S
O829        C839   1.284       .  A
O830       Ni837   1.933   1_455  S
O831       Ni837   1.901       .  S
O831        C841   1.274       .  A
O832       Ni837   1.902       .  S
O832        C842   1.274       .  A
O833       Ni838   1.933       .  S
O833        C842   1.284   1_545  A
O835        C840   1.275       .  A
O836       Ni838   1.900       .  S
O836        C839   1.274   1_545  A
Ni837      Ni838   2.393   1_565  S
C839       C1063   1.433       .  S
C840       C1059   1.435       .  S
C841       C1061   1.434       .  S
C842       C1129   1.435       .  S
O843       Ni851   1.932   1_455  S
O843        C853   1.284       .  A
O844        C854   1.284   1_545  A
O845       Ni851   1.902       .  S
O845        C855   1.274       .  A
O846       Ni851   1.901       .  S
O847       Ni852   1.932       .  S
O847        C856   1.284       .  A
O848       Ni852   1.933       .  S
O849       Ni852   1.903       .  S
O849        C854   1.275       .  A
O850        C853   1.274       .  A
C853       C1057   1.433       .  S
C854       C1070   1.435       .  S
C855       C1076   1.435       .  S
C856       C1062   1.434       .  S
O857       Ni865   1.932       .  S
O857        C867   1.284       .  A
O858       Ni865   1.933       .  S
O858        C868   1.284       .  A
O859       Ni865   1.901       .  S
O859        C869   1.274       .  A
O860       Ni865   1.902       .  S
O860        C870   1.274       .  A
O861       Ni866   1.933       .  S
O861        C870   1.284       .  A
O862       Ni866   1.932       .  S
O862        C869   1.284       .  A
O863       Ni866   1.903       .  S
O863        C868   1.275       .  A
O864       Ni866   1.900       .  S
O864        C867   1.274       .  A
Ni865      Ni866   2.393       .  S
C867       C1053   1.433       .  S
C868       C1060   1.435       .  S
C869       C1055   1.434       .  S
C870       C1113   1.435       .  S
O871       Ni879   1.932       .  S
O871        C881   1.284       .  A
O872       Ni879   1.933       .  S
O872        C882   1.284       .  A
O873       Ni879   1.902       .  S
O873        C883   1.274       .  A
O874       Ni879   1.901       .  S
O874        C884   1.274       .  A
O875       Ni880   1.932       .  S
O875        C884   1.284       .  A
O876       Ni880   1.933       .  S
O876        C883   1.284       .  A
O877       Ni880   1.903       .  S
O877        C882   1.275       .  A
O878       Ni880   1.900       .  S
O878        C881   1.274       .  A
Ni879      Ni880   2.393       .  S
C881       C1058   1.433       .  S
C882       C1052   1.435       .  S
C883       C1100   1.435       .  S
C884       C1056   1.434       .  S
O885       Ni893   1.932       .  S
O885        C895   1.284       .  A
O886       Ni893   1.933       .  S
O886        C896   1.284       .  A
O887       Ni893   1.902       .  S
O887        C897   1.274       .  A
O888       Ni893   1.901       .  S
O888        C898   1.274       .  A
O889       Ni894   1.932       .  S
O889        C898   1.284       .  A
O890       Ni894   1.933       .  S
O890        C897   1.284       .  A
O891       Ni894   1.903       .  S
O891        C896   1.275       .  A
O892       Ni894   1.900       .  S
O892        C895   1.274       .  A
Ni893      Ni894   2.393       .  S
C895       C1067   1.433       .  S
C896       C1051   1.435       .  S
C897       C1090   1.435       .  S
C898       C1049   1.434       .  S
O899       Ni907   1.932       .  S
O899        C909   1.284       .  A
O900       Ni907   1.933       .  S
O900        C910   1.284       .  A
O901       Ni907   1.901       .  S
O901        C911   1.274       .  A
O902       Ni907   1.902       .  S
O902        C912   1.274       .  A
O903       Ni908   1.933       .  S
O903        C912   1.284       .  A
O904       Ni908   1.932       .  S
O904        C911   1.284       .  A
O905       Ni908   1.903       .  S
O905        C910   1.275       .  A
O906       Ni908   1.900       .  S
O906        C909   1.274       .  A
Ni907      Ni908   2.393       .  S
C909       C1054   1.433       .  S
C910       C1066   1.435       .  S
C911       C1050   1.434       .  S
C912       C1120   1.435       .  S
O913       Ni921   1.932   1_545  S
O913        C923   1.284   1_545  A
O914       Ni921   1.933       .  S
O914        C924   1.284       .  A
O915       Ni921   1.901       .  S
O915        C925   1.274       .  A
O916       Ni921   1.902       .  S
O916        C926   1.274       .  A
O917       Ni922   1.933       .  S
O917        C926   1.284       .  A
O918       Ni922   1.932       .  S
O918        C925   1.284       .  A
O919       Ni922   1.903       .  S
O919        C924   1.275       .  A
O920       Ni922   1.900       .  S
O920        C923   1.274       .  A
Ni921      Ni922   2.393       .  S
C923       C1044   1.433       .  S
C924       C1045   1.435       .  S
C925       C1048   1.434       .  S
C926       C1106   1.435       .  S
O927       Ni935   1.932       .  S
O927        C937   1.284       .  A
O928       Ni935   1.933       .  S
O928        C938   1.284       .  A
O929       Ni935   1.902       .  S
O929        C939   1.274       .  A
O930       Ni935   1.901       .  S
O930        C940   1.274       .  A
O931       Ni936   1.932       .  S
O931        C940   1.284       .  A
O932       Ni936   1.933       .  S
O932        C939   1.284       .  A
O933       Ni936   1.903       .  S
O933        C938   1.275       .  A
O934       Ni936   1.900       .  S
O934        C937   1.274       .  A
Ni935      Ni936   2.393       .  S
C937       C1040   1.433       .  S
C938       C1041   1.435       .  S
C939       C1116   1.435       .  S
C940       C1047   1.434       .  S
O941       Ni949   1.932       .  S
O941        C951   1.284       .  A
O942       Ni949   1.933       .  S
O942        C952   1.284       .  A
O943       Ni949   1.901       .  S
O943        C953   1.274       .  A
O944       Ni949   1.902       .  S
O944        C954   1.274       .  A
O945       Ni950   1.933       .  S
O945        C954   1.284       .  A
O946       Ni950   1.932       .  S
O946        C953   1.284       .  A
O947       Ni950   1.903       .  S
O947        C952   1.275       .  A
O948       Ni950   1.900       .  S
O948        C951   1.274       .  A
Ni949      Ni950   2.393       .  S
C951       C1034   1.433       .  S
C952       C1035   1.435       .  S
C953       C1037   1.434       .  S
C954       C1080   1.435       .  S
O955       Ni963   1.932       .  S
O955        C965   1.284       .  A
O956       Ni963   1.933       .  S
O956        C966   1.284       .  A
O957       Ni963   1.902       .  S
O957        C967   1.274       .  A
O958       Ni963   1.901       .  S
O958        C968   1.274       .  A
O959       Ni964   1.932       .  S
O959        C968   1.284       .  A
O960       Ni964   1.933       .  S
O960        C967   1.284       .  A
O961       Ni964   1.903       .  S
O961        C966   1.275       .  A
O962       Ni964   1.900       .  S
O962        C965   1.274       .  A
Ni963      Ni964   2.393       .  S
C965       C1029   1.433       .  S
C966       C1032   1.435       .  S
C967       C1145   1.435       .  S
C968       C1038   1.434       .  S
O969       Ni977   1.932       .  S
O969        C979   1.284       .  A
O970       Ni977   1.933       .  S
O971       Ni977   1.901       .  S
O971        C981   1.274       .  A
O972       Ni977   1.902       .  S
O972        C982   1.274       .  A
O973       Ni978   1.933       .  S
O973        C982   1.284   1_545  A
O975        C980   1.275       .  A
O976       Ni978   1.900       .  S
O976        C979   1.274   1_545  A
Ni977      Ni978   2.393   1_565  S
C979       C1043   1.433       .  S
C980       C1036   1.435       .  S
C981       C1028   1.434       .  S
C982       C1094   1.435       .  S
O983       Ni991   1.932       .  S
O983        C993   1.284       .  A
O984        C994   1.284   1_545  A
O985       Ni991   1.902       .  S
O985        C995   1.274       .  A
O986       Ni991   1.901       .  S
O987       Ni992   1.932       .  S
O987        C996   1.284       .  A
O988       Ni992   1.933       .  S
O989       Ni992   1.903       .  S
O989        C994   1.275       .  A
O990        C993   1.274       .  A
C993       C1030   1.433       .  S
C994       C1042   1.435       .  S
C995       C1124   1.435       .  S
C996       C1027   1.434       .  S
O997      Ni1005   1.932       .  S
O997       C1007   1.284       .  A
O998      Ni1005   1.933   1_455  S
O998       C1008   1.284       .  A
O999      Ni1005   1.901       .  S
O999       C1009   1.274       .  A
O1000     Ni1005   1.902       .  S
O1000      C1010   1.274       .  A
O1001     Ni1006   1.933       .  S
O1001      C1010   1.284       .  A
O1002     Ni1006   1.932       .  S
O1002      C1009   1.284       .  A
O1003     Ni1006   1.903   1_455  S
O1003      C1008   1.275       .  A
O1004     Ni1006   1.900       .  S
O1004      C1007   1.274       .  A
Ni1005    Ni1006   2.393       .  S
C1007      C1033   1.433       .  S
C1008      C1046   1.435       .  S
C1009      C1026   1.434       .  S
C1010      C1074   1.435       .  S
O1011     Ni1019   1.932   1_455  S
O1011      C1021   1.284       .  A
O1012     Ni1019   1.933       .  S
O1012      C1022   1.284       .  A
O1013     Ni1019   1.902       .  S
O1013      C1023   1.274       .  A
O1014     Ni1019   1.901       .  S
O1014      C1024   1.274       .  A
O1015     Ni1020   1.932       .  S
O1015      C1024   1.284       .  A
O1016     Ni1020   1.933       .  S
O1016      C1023   1.284       .  A
O1017     Ni1020   1.903       .  S
O1017      C1022   1.275       .  A
O1018     Ni1020   1.900   1_455  S
O1018      C1021   1.274       .  A
Ni1019    Ni1020   2.393       .  S
C1021      C1039   1.433       .  S
C1022      C1031   1.435       .  S
C1023      C1133   1.435       .  S
C1024      C1025   1.434       .  S
C1025      C1026   1.205   1_554  T
C1027      C1028   1.205   1_554  T
C1029      C1030   1.205       .  T
C1031      C1032   1.206       .  T
C1033      C1034   1.205       .  T
C1035      C1036   1.206       .  T
C1037      C1038   1.205   1_556  T
C1039      C1040   1.205       .  T
C1041      C1042   1.206       .  T
C1043      C1044   1.205       .  T
C1045      C1046   1.206       .  T
C1047      C1048   1.205   1_554  T
C1049      C1050   1.205       .  T
C1051      C1052   1.206       .  T
C1053      C1054   1.205       .  T
C1055      C1056   1.205       .  T
C1057      C1058   1.205       .  T
C1059      C1060   1.206       .  T
C1061      C1062   1.205       .  T
C1063      C1064   1.205       .  T
C1065      C1066   1.206       .  T
C1067      C1068   1.205       .  T
C1069      C1070   1.206       .  T
C1071      C1072   1.205       .  T
C1073      C1074   1.206       .  T
C1075      C1076   1.206       .  T
C1077      C1078   1.205       .  T
C1079      C1080   1.206       .  T
C1081      C1082   1.205       .  T
C1083      C1084   1.206       .  T
C1085      C1086   1.206       .  T
C1087      C1088   1.205       .  T
C1089      C1090   1.206       .  T
C1091      C1092   1.205       .  T
C1093      C1094   1.206       .  T
C1095      C1096   1.206       .  T
C1097      C1098   1.205       .  T
C1099      C1100   1.206       .  T
C1101      C1102   1.205       .  T
C1103      C1104   1.206       .  T
C1105      C1106   1.206       .  T
C1107      C1108   1.205       .  T
C1109      C1110   1.206       .  T
C1111      C1112   1.205       .  T
C1113      C1114   1.206       .  T
C1115      C1116   1.206       .  T
C1117      C1118   1.205       .  T
C1119      C1120   1.206       .  T
C1121      C1122   1.205       .  T
C1123      C1124   1.206       .  T
C1125      C1126   1.206       .  T
C1127      C1128   1.205       .  T
C1129      C1130   1.206       .  T
C1131      C1132   1.206       .  T
C1133      C1134   1.206       .  T
C1135      C1136   1.205       .  T
C1137      C1138   1.206       .  T
C1139      C1140   1.206       .  T
C1141      C1142   1.205       .  T
C1143      C1144   1.206       .  T
C1145      C1146   1.206       .  T
C1147      C1148   1.205       .  T
C1149      C1150   1.206       .  T
C1151      C1152   1.205       .  T
