geometry optimzed in LAMMPS
_audit_creation_date              2020-12-01 
_audit_creation_method            'lammps2cif' 
_symmetry_space_group_name_H-M    'P1' 
_symmetry_Int_Tables_number       1 
_symmetry_cell_setting            triclinic 
loop_ 
_symmetry_equiv_pos_as_xyz 
  x,y,z 
_cell_length_a                    33.48857168 
_cell_length_b                    37.45834559792218 
_cell_length_c                    44.27323122587845 
_cell_angle_alpha                 89.82198287436141 
_cell_angle_beta                  94.55663202039536 
_cell_angle_gamma                 90.33171905445346 
loop_ 
_atom_site_label 
_atom_site_type_symbol 
_atom_site_fract_x 
_atom_site_fract_y 
_atom_site_fract_z 
_atom_site_charge 
O1          O  0.45302384  0.45678032  0.37394061    -0.82300
C2          C  0.40467465  0.37417204  0.46633506     0.97100
O3          O  0.38280404  0.39976927  0.45584572    -0.71400
O4          O  0.43229314  0.45160547  0.45160946    -0.75000
Al5        Al  0.39380545  0.43263330  0.42375421     1.49000
C6          C  0.46955010  0.45574578  0.45245896     0.92300
O7          O  0.50721748  0.38103151  0.41381204    -0.81200
O8          O  0.40939077  0.35915017  0.36331690    -0.74800
Al9        Al  0.47432019  0.41741570  0.39511635     1.90100
O10         O  0.46691885  0.33650640  0.40441815    -0.73900
O11         O  0.35880011  0.36101625  0.40659335    -0.73700
O12         O  0.42175875  0.35365249  0.44866714    -0.79400
O13         O  0.34911341  0.41736735  0.39743095    -0.77600
O14         O  0.42812412  0.40275470  0.40810211    -1.13700
O15         O  0.39989936  0.47173083  0.39626942    -0.72900
C16         C  0.42531795  0.47824475  0.37745893     0.97800
C17         C  0.50162493  0.34822926  0.41055450     0.94200
Al18       Al  0.41529733  0.35655181  0.40600550     1.55600
O19         O  0.48932682  0.44512105  0.43094456    -0.77500
C20         C  0.33571723  0.38592254  0.39787065     0.98400
C21         C  0.43402131  0.37336280  0.34638130     0.93300
O22         O  0.46402626  0.39173234  0.35735061    -0.82800
O23         O  0.54307409  0.09473163  0.15327709    -0.82300
C24         C  0.60493927  0.11421358  0.04449368     0.97100
O25         O  0.58595199  0.13367442  0.06177799    -0.71400
O26         O  0.53896382  0.14865100  0.10533699    -0.75000
Al27       Al  0.59151699  0.13039592  0.10462634     1.49000
C28         C  0.50467866  0.13579773  0.09927506     0.92300
O29         O  0.52094046  0.03812733  0.08067383    -0.81200
O30         O  0.60694014  0.01396324  0.11160019    -0.74800
Al31       Al  0.53449900  0.06786541  0.11593354     1.90100
O32         O  0.57652561  0.03784403  0.05732489    -0.73900
O33         O  0.65780708  0.06956791  0.11410666    -0.73700
O34         O  0.62726481  0.08926362  0.05556022    -0.79400
O35         O  0.64841326  0.12628064  0.10530622    -0.77600
O36         O  0.57974112  0.08398853  0.10238565    -1.13700
O37         O  0.59691091  0.12799439  0.14718835    -0.72900
C38         C  0.57290540  0.11326536  0.16421027     0.97800
C39         C  0.54013351  0.03003265  0.05800927     0.94200
Al40       Al  0.61441963  0.05507108  0.08624810     1.55600
O41         O  0.50015396  0.10275621  0.09642208    -0.77500
C42         C  0.67110329  0.10116865  0.11453579     0.98400
C43         C  0.58361570  0.50764831  0.13198492     0.93300
O44         O  0.55830248  0.03029067  0.13824136    -0.82800
O45         O  0.46668875  0.34441561  0.10711338    -0.82300
C46         C  0.40540076  0.36280256  0.21595240     0.97100
O47         O  0.42484760  0.38211194  0.19864090    -0.71400
O48         O  0.47160657  0.39723795  0.15485971    -0.75000
Al49       Al  0.41886891  0.37914799  0.15592240     1.49000
C50         C  0.50575287  0.38430996  0.16065143     0.92300
O51         O  0.48802405  0.28647193  0.17924831    -0.81200
O52         O  0.40233781  0.26261514  0.14923915    -0.74800
Al53       Al  0.47477662  0.31680706  0.14419486     1.90100
O54         O  0.43311433  0.28694044  0.20352872    -0.73900
O55         O  0.35187810  0.31831833  0.14629093    -0.73700
O56         O  0.38263099  0.33794657  0.20496824    -0.79400
O57         O  0.36200934  0.37494399  0.15549250    -0.77600
O58         O  0.43001845  0.33281324  0.15807320    -1.13700
O59         O  0.41308869  0.37713526  0.11352334    -0.72900
C60         C  0.43710675  0.36314321  0.09636608     0.97800
C61         C  0.46935873  0.27912472  0.20244757     0.94200
Al62       Al  0.39515206  0.30379898  0.17439927     1.57200
O63         O  0.50984411  0.35127138  0.16385510    -0.77500
C64         C  0.33906403  0.34997399  0.14589260     0.98400
C65         C  0.42494148  0.25685113  0.12833914     0.93300
O66         O  0.44974769  0.28002253  0.12160140    -0.82800
O67         O  0.55912370  0.20359334  0.38859905    -0.82300
C68         C  0.60515192  0.12162059  0.29444530     0.97100
O69         O  0.62741295  0.14684845  0.30536593    -0.71400
O70         O  0.57646545  0.19748567  0.30689825    -0.75000
Al71       Al  0.61455470  0.18076476  0.33596558     1.49000
C72         C  0.54018452  0.20512762  0.30789331     0.92300
O73         O  0.50043474  0.13232512  0.34559597    -0.81200
O74         O  0.59700587  0.10733181  0.39717924    -0.74800
Al75       Al  0.53475603  0.16686515  0.36579419     1.90100
O76         O  0.53871774  0.08647771  0.35504954    -0.73900
O77         O  0.64848490  0.10979611  0.35528003    -0.73700
O78         O  0.58613819  0.10197011  0.31179627    -0.79400
O79         O  0.65836926  0.16659809  0.36373457    -0.77600
O80         O  0.57995786  0.15133681  0.35221597    -1.13700
O81         O  0.60671290  0.22173359  0.36138598    -0.72900
C82         C  0.58361570  0.22712589  0.38207462     0.97800
C83         C  0.50462818  0.09927240  0.34836769     0.94200
Al84       Al  0.59159007  0.10508419  0.35456508     1.55600
O85         O  0.52140760  0.19737255  0.33091439    -0.77500
C86         C  0.67147255  0.13501731  0.36421098     0.98400
C87         C  0.57271323  0.12149013  0.41407093     0.93300
O88         O  0.54263353  0.13928434  0.40291267    -0.82800
O89         O  0.04152818  0.34533112  0.40251157    -0.82300
C90         C  0.10202099  0.36554959  0.29376255     0.97100
O91         O  0.08300541  0.38508989  0.31101276    -0.71400
O92         O  0.03703993  0.40016241  0.35538323    -0.75000
Al93       Al  0.08920956  0.38181380  0.35383278     1.49000
C94         C  0.00264659  0.38767070  0.34942127     0.92300
O95         O  0.01851111  0.29050851  0.32915517    -0.81200
O96         O  0.10665769  0.26601229  0.36188167    -0.74800
Al97       Al  0.03223504  0.31925136  0.36479786     1.90100
O98         O  0.07502237  0.28812769  0.30689670    -0.73900
O99         O  0.15602590  0.32216433  0.36337280    -0.73700
O100        O  0.12448595  0.34064738  0.30476497    -0.79400
O101        O  0.14599851  0.37852576  0.35383242    -0.77600
O102        O  0.07763342  0.33535689  0.35153223    -1.13700
O103        O  0.09515074  0.37894546  0.39628552    -0.72900
C104        C  0.07139294  0.36394690  0.41337411     0.97800
C105        C  0.03823695  0.28149816  0.30704458     0.94200
Al106      Al  0.11278045  0.30662397  0.33573782     1.55600
O107        O  0.99786734  0.35473557  0.34603156    -0.77500
C108        C  0.16887902  0.35389157  0.36362599     0.98400
C109        C  0.08244769  0.25932338  0.38155557     0.93300
O110        O  0.05534286  0.28091543  0.38625600    -0.82800
O111        O  0.95185545  0.20277730  0.12342922    -0.82300
C112        C  0.90565464  0.11959733  0.21694046     0.97100
O113        O  0.88313202  0.14438229  0.20590327    -0.71400
O114        O  0.93333902  0.19617939  0.20394894    -0.75000
Al115      Al  0.89539435  0.17838043  0.17511270     1.49000
C116        C  0.96984891  0.20354981  0.20326363     0.92300
O117        O  0.00968696  0.13036226  0.16539042    -0.81200
O118        O  0.91250686  0.10584188  0.11419290    -0.74800
Al119      Al  0.97551979  0.16531587  0.14571116     1.90100
O120        O  0.97102800  0.08462879  0.15552018    -0.73900
O121        O  0.86160953  0.10683100  0.15682742    -0.73700
O122        O  0.92465782  0.09992503  0.19974984    -0.79400
O123        O  0.85180560  0.16337033  0.14760703    -0.77600
O124        O  0.93017210  0.14941431  0.15912372    -1.13700
O125        O  0.90241550  0.21915309  0.14927574    -0.72900
C126        C  0.92620561  0.22536481  0.12918441     0.97800
C127        C  0.00531101  0.09739192  0.16184221     0.94200
Al128      Al  0.91847506  0.10303466  0.15685230     1.55600
O129        O  0.98911504  0.19511185  0.18076870    -0.77500
C130        C  0.83857605  0.13175936  0.14779141     0.98400
C131        C  0.93673424  0.12055612  0.09727695     0.93300
O132        O  0.96697950  0.13837618  0.10846743    -0.82800
O133        O  0.05703396  0.45537173  0.13565568    -0.82300
C134        C  0.10410183  0.37248558  0.04359552     0.97100
O135        O  0.12632617  0.39806739  0.05404166    -0.71400
O136        O  0.07792153  0.45047660  0.05762214    -0.75000
Al137      Al  0.11575176  0.43130619  0.08580759     1.49000
C138        C  0.04092759  0.45564709  0.05731001     0.92300
O139        O  0.00143335  0.38037330  0.09526370    -0.81200
O140        O  0.09898760  0.35876764  0.14664826    -0.74800
Al141      Al  0.03487653  0.41655776  0.11427879     1.90100
O142        O  0.04085679  0.33585816  0.10610230    -0.73900
O143        O  0.14973107  0.35947053  0.10318298    -0.73700
O144        O  0.08631173  0.35219524  0.06131350    -0.79400
O145        O  0.15979508  0.41577832  0.11252899    -0.77600
O146        O  0.08083054  0.40169338  0.10146468    -1.13700
O147        O  0.10997597  0.47085910  0.11298020    -0.72900
C148        C  0.08475793  0.47705779  0.13198644     0.97800
C149        C  0.00637812  0.34761035  0.09948275     0.94200
Al150      Al  0.09292234  0.35547785  0.10403178     1.55600
O151        O  0.02096888  0.44500361  0.07880748    -0.77500
C152        C  0.17311209  0.38446789  0.11170269     0.98400
C153        C  0.07419099  0.37293754  0.16327285     0.93300
O154        O  0.04403869  0.39053731  0.15191358    -0.82800
O155        O  0.96809268  0.09635183  0.35874680    -0.82300
C156        C  0.90607156  0.11580832  0.46667624     0.97100
O157        O  0.92503439  0.13537856  0.44915670    -0.71400
O158        O  0.97200728  0.14976273  0.40505239    -0.75000
Al159      Al  0.91913633  0.13174506  0.40624460     1.49000
C160        C  0.00603210  0.13696143  0.41178676     0.92300
O161        O  0.98819010  0.03943639  0.43071753    -0.81200
O162        O  0.90169152  0.01562635  0.40002595    -0.74800
Al163      Al  0.97533992  0.06930260  0.39585314     1.90100
O164        O  0.93300445  0.03921249  0.45453511    -0.73900
O165        O  0.85133800  0.07143255  0.39784298    -0.73700
O166        O  0.88313224  0.09098565  0.45591781    -0.79400
O167        O  0.86217596  0.12811644  0.40593384    -0.77600
O168        O  0.93015313  0.08542059  0.40909740    -1.13700
O169        O  0.91358895  0.12849548  0.36354924    -0.72900
C170        C  0.93818575  0.11383779  0.34707574     0.97800
C171        C  0.96932245  0.03153300  0.45356640     0.94200
Al172      Al  0.89503821  0.05666379  0.42548830     1.55600
O173        O  0.00995926  0.10400830  0.41569044    -0.77500
C174        C  0.83870353  0.10316182  0.39728880     0.98400
C175        C  0.92497475  0.00951844  0.37961392     0.93300
O176        O  0.95072832  0.03218019  0.37349665    -0.82800
C177        C  0.98895588  0.01276741  0.47998541    -0.06000
C178        C  0.97141925  0.51443074  0.50784931    -0.33400
C179        C  0.98745370  0.49550611  0.03312419     0.35900
C180        C  0.02175524  0.47464074  0.03091475    -0.06300
C181        C  0.03966167  0.47332553  0.00320048    -0.33300
C182        C  0.02349895  0.99208606  0.97784843     0.35800
H183        H  0.94515063  0.53065734  0.51017914     0.16100
O184        O  0.97050260  0.49898011  0.06015810    -0.60800
H185        H  0.06622635  0.95742376  0.00106640     0.16100
O186        O  0.04149595  0.98969080  0.45115504    -0.60900
H187        H  0.02925827  0.96842334  0.94075200     0.43100
H188        H  0.94843464  0.48114590  0.55939458     0.43100
C189        C  0.91227839  0.11982735  0.50003288    -0.06000
C190        C  0.88698898  0.10132492  0.01862112    -0.33400
C191        C  0.89494506  0.10049293  0.05010564     0.35900
C192        C  0.92886554  0.11847854  0.06383170    -0.06300
C193        C  0.95399243  0.13717270  0.04521879    -0.33300
C194        C  0.94593513  0.13807137  0.51373432     0.35800
H195        H  0.86109065  0.08686092  0.50870426     0.16100
O196        O  0.86891245  0.08236165  0.06710810    -0.60800
H197        H  0.98008143  0.15142926  0.05504933     0.16100
O198        O  0.97228304  0.15558554  0.49660155    -0.60900
H199        H  0.96239277  0.18047339  0.49490096     0.43100
H200        H  0.87920996  0.05759325  0.06857515     0.43100
C201        C  0.93080757  0.11572921  0.31364837    -0.06000
C202        C  0.89573615  0.13213041  0.30093434    -0.33400
C203        C  0.88612928  0.13213593  0.26965910     0.35900
C204        C  0.91184221  0.11566208  0.25021866    -0.06300
C205        C  0.94673765  0.09901450  0.26285957    -0.33300
C206        C  0.95632314  0.09887529  0.29418295     0.35800
H207        H  0.87526392  0.14481761  0.31527836     0.16100
O208        O  0.85169607  0.14877936  0.25841581    -0.60800
H209        H  0.96740353  0.08684453  0.24836731     0.16100
O210        O  0.99114171  0.08275719  0.30531688    -0.60900
H211        H  0.98431862  0.05706388  0.30702458     0.43100
H212        H  0.83120045  0.12955734  0.25607190     0.43100
C213        C  0.03991822  0.07318874  0.16215048    -0.06000
C214        C  0.04122649  0.04350175  0.18147470    -0.33400
C215        C  0.06324982  0.01328142  0.17484724     0.35900
C216        C  0.08260004  0.01180959  0.14764854    -0.06300
C217        C  0.08602990  0.04334275  0.13076422    -0.33300
C218        C  0.06491438  0.07408060  0.13799834     0.35800
H219        H  0.02230107  0.04252583  0.20021848     0.16100
O220        O  0.06077530  0.98349716  0.19272825    -0.60800
H221        H  0.10058001  0.04285989  0.10976501     0.16100
O222        O  0.06405677  0.10276752  0.11864556    -0.60900
H223        H  0.08573734  0.11885659  0.12707027     0.43100
H224        H  0.08747291  0.98146585  0.20402519     0.43100
C225        C  0.92938063  0.26077995  0.11447621    -0.06000
C226        C  0.94900842  0.26228747  0.08756717    -0.33400
C227        C  0.97111742  0.29246723  0.08037958     0.35900
C228        C  0.97229280  0.32247210  0.09932848    -0.06300
C229        C  0.94752930  0.32318570  0.12349734    -0.33300
C230        C  0.92631068  0.29242059  0.13134506     0.35800
H231        H  0.95159383  0.23839893  0.07410755     0.16100
O232        O  0.99525670  0.29079419  0.05686784    -0.60800
H233        H  0.94837067  0.34608960  0.13843813     0.16100
O234        O  0.90696623  0.29235839  0.15752474    -0.60900
H235        H  0.92793745  0.28686510  0.17397864     0.43100
H236        H  0.97677462  0.29239268  0.03826190     0.43100
C237        C  0.01925674  0.26242067  0.28053242    -0.06000
C238        C  0.03497933  0.26709874  0.25216385    -0.33400
C239        C  0.01988765  0.24767940  0.22680980     0.35900
C240        C  0.98894898  0.22273090  0.22965794    -0.06300
C241        C  0.97328674  0.21802645  0.25803868    -0.33300
C242        C  0.98820036  0.23758978  0.28332589     0.35800
H243        H  0.05894640  0.28615207  0.24957177     0.16100
O244        O  0.03492245  0.25393448  0.19933308    -0.60800
H245        H  0.94936183  0.19892570  0.26068893     0.16100
O246        O  0.97278333  0.23165111  0.31070783    -0.60900
H247        H  0.98977839  0.21275843  0.32067970     0.43100
H248        H  0.01725406  0.27237921  0.18935503     0.43100
C249        C  0.08089835  0.22422459  0.39695430    -0.06000
C250        C  0.08475538  0.19302725  0.37989848    -0.33400
C251        C  0.06480916  0.16151252  0.38741541     0.35900
C252        C  0.04077209  0.16124837  0.41215660    -0.06300
C253        C  0.04197012  0.19064360  0.43162998    -0.33300
C254        C  0.06246310  0.22179351  0.42452697     0.35800
H255        H  0.09859196  0.19427402  0.35860736     0.16100
O256        O  0.06377030  0.13324751  0.36773335    -0.60800
H257        H  0.02359490  0.19076288  0.45070758     0.16100
O258        O  0.05917698  0.25134193  0.44238436    -0.60900
H259        H  0.08624028  0.25500167  0.45276500     0.43100
H260        H  0.08153038  0.11501366  0.37790797     0.43100
C261        C  0.96856696  0.41239138  0.34909314    -0.06000
C262        C  0.94414775  0.41161593  0.37346685    -0.33400
C263        C  0.92361795  0.44238751  0.38150750     0.35900
C264        C  0.92729815  0.47420348  0.36477582    -0.06300
C265        C  0.94639313  0.47280786  0.33761083    -0.33300
C266        C  0.96793138  0.44262217  0.33025841     0.35800
H267        H  0.94489181  0.38865624  0.38845732     0.16100
O268        O  0.90544560  0.44249814  0.40818545    -0.60800
H269        H  0.94918180  0.49677157  0.32413505     0.16100
O270        O  0.99141207  0.44412722  0.30627048    -0.60900
H271        H  0.01626282  0.45672715  0.31402944     0.43100
H272        H  0.87781187  0.43374121  0.40279665     0.43100
C273        C  0.09670198  0.36987801  0.26040795    -0.06000
C274        C  0.11760109  0.34710907  0.24207763    -0.33400
C275        C  0.11016939  0.34723572  0.21059476     0.35900
C276        C  0.08117734  0.37037877  0.19663745    -0.06300
C277        C  0.06032165  0.39323228  0.21490669    -0.33300
C278        C  0.06795526  0.39327170  0.24640836     0.35800
H279        H  0.13936705  0.32840356  0.25215086     0.16100
O280        O  0.13057718  0.32372969  0.19387432    -0.60800
H281        H  0.03810443  0.41149520  0.20477835     0.16100
O282        O  0.04610217  0.41549549  0.26319927    -0.60900
H283        H  0.06116770  0.43839601  0.26426155     0.43100
H284        H  0.15646941  0.33569559  0.19083709     0.43100
C285        C  0.09741114  0.36805503  0.01029996    -0.06000
C286        C  0.11911846  0.38945162  0.99120809    -0.33400
C287        C  0.11060990  0.38898342  0.45979229     0.35900
C288        C  0.07959929  0.36690595  0.44667230    -0.06300
C289        C  0.05800774  0.34541286  0.46574001    -0.33300
C290        C  0.06646793  0.34600486  0.99715783     0.35800
H291        H  0.14254899  0.40717143  0.00062320     0.16100
O292        O  0.13243375  0.41080324  0.44229731    -0.60800
H293        H  0.03431779  0.32794305  0.45634483     0.16100
O294        O  0.04342309  0.32554763  0.01473804    -0.60900
H295        H  0.02031156  0.34088989  0.51856769     0.43100
H296        H  0.15752179  0.39760895  0.43973151     0.43100
C297        C  0.71403568  0.12702850  0.37366781    -0.06000
C298        C  0.74289911  0.15435727  0.37449716    -0.33400
C299        C  0.78355386  0.14688018  0.38140445     0.35900
C300        C  0.79614425  0.11150168  0.38808671    -0.06300
C301        C  0.76725229  0.08423459  0.38731819    -0.33300
C302        C  0.72665528  0.09169398  0.38040235     0.35800
H303        H  0.73408869  0.18158459  0.36915574     0.16100
O304        O  0.81065637  0.17447700  0.38136335    -0.60800
H305        H  0.77601358  0.05699031  0.39262746     0.16100
O306        O  0.69961278  0.06404670  0.38038156    -0.60900
H307        H  0.68988694  0.06400756  0.40095401     0.43100
H308        H  0.82036796  0.17444776  0.36076018     0.43100
C309        C  0.21597435  0.37643505  0.11973056    -0.06000
C310        C  0.23130052  0.34300453  0.11198802    -0.33400
C311        C  0.27141210  0.33413209  0.11961529     0.35900
C312        C  0.29697461  0.35861010  0.13574192    -0.06300
C313        C  0.28189776  0.39234988  0.14274247    -0.33300
C314        C  0.24195003  0.40132196  0.13494012     0.35800
H315        H  0.21217091  0.32358463  0.09977893     0.16100
O316        O  0.28514675  0.30151946  0.11114247    -0.60800
H317        H  0.30096356  0.41187179  0.15488050     0.16100
O318        O  0.22869889  0.43441133  0.14258913    -0.60900
H319        H  0.21924185  0.43144096  0.16312835     0.43100
H320        H  0.29611208  0.30570942  0.09126552     0.43100
C321        C  0.52079019  0.22359602  0.28114899    -0.06000
C322        C  0.53735731  0.21979172  0.25301978    -0.33400
C323        C  0.52173520  0.23820915  0.22728614     0.35900
C324        C  0.48887679  0.26091818  0.22929590    -0.06300
C325        C  0.47240715  0.26486266  0.25746996    -0.33300
C326        C  0.48820310  0.24660524  0.28325345     0.35800
H327        H  0.56260019  0.20228697  0.25086906     0.16100
O328        O  0.53851670  0.23341951  0.20032550    -0.60800
H329        H  0.44722412  0.28244540  0.25963236     0.16100
O330        O  0.47204826  0.25203091  0.31037741    -0.60900
H331        H  0.48815465  0.27165396  0.32030639     0.43100
H332        H  0.52455793  0.21234493  0.19087152     0.43100
C333        C  0.71360432  0.10904944  0.12423578    -0.06000
C334        C  0.74155574  0.08125551  0.12645717    -0.33400
C335        C  0.78226432  0.08824401  0.13373987     0.35900
C336        C  0.79586449  0.12367693  0.13898181    -0.06300
C337        C  0.76787154  0.15143002  0.13695898    -0.33300
C338        C  0.72714634  0.14442090  0.12985665     0.35800
H339        H  0.73201848  0.05396609  0.12195395     0.16100
O340        O  0.80859237  0.06026558  0.13460225    -0.60800
H341        H  0.77744645  0.17875291  0.14123839     0.16100
O342        O  0.70097132  0.17252404  0.12821860    -0.60900
H343        H  0.69480731  0.17697816  0.14941093     0.43100
H344        H  0.80722686  0.04935969  0.15493760     0.43100
C345        C  0.58099520  0.11611424  0.19751884    -0.06000
C346        C  0.56369071  0.09109023  0.21630932    -0.33400
C347        C  0.57300358  0.09113769  0.24766322     0.35900
C348        C  0.59948038  0.11707637  0.26108671    -0.06300
C349        C  0.61718828  0.14181639  0.24221698    -0.33300
C350        C  0.60841830  0.14137594  0.21080447     0.35800
H351        H  0.54324935  0.07088932  0.20664870     0.16100
O352        O  0.55527579  0.06606237  0.26489850    -0.60800
H353        H  0.63732985  0.16227886  0.25182061     0.16100
O354        O  0.62600063  0.16650318  0.19348195    -0.60900
H355        H  0.65329874  0.15737516  0.19108197     0.43100
H356        H  0.57468425  0.04616183  0.26718498     0.43100
C357        C  0.59917850  0.11855300  0.01106483    -0.06000
C358        C  0.61727810  0.09414915  0.99237984    -0.33400
C359        C  0.60826711  0.09410029  0.46098651     0.35900
C360        C  0.58069319  0.11888219  0.44743911    -0.06300
C361        C  0.56306445  0.14364131  0.46601977    -0.33300
C362        C  0.57225411  0.14382008  0.99741140     0.35800
H363        H  0.63784501  0.07424642  0.00214365     0.16100
O364        O  0.62654173  0.06950267  0.44388164    -0.60800
H365        H  0.54245027  0.16345990  0.45616298     0.16100
O366        O  0.55392508  0.16839233  0.01446298    -0.60900
H367        H  0.57247058  0.18915947  0.01606192     0.43100
H368        H  0.60849299  0.04838189  0.44298079     0.43100
C369        C  0.47018776  0.16008558  0.09864357    -0.06000
C370        C  0.44593544  0.15928015  0.12310174    -0.33400
C371        C  0.42486076  0.18980285  0.13087174     0.35900
C372        C  0.42778677  0.22143008  0.11376540    -0.06300
C373        C  0.44656844  0.21990364  0.08644823    -0.33300
C374        C  0.46860967  0.18989665  0.07931444     0.35800
H375        H  0.44726770  0.13657092  0.13837404     0.16100
O376        O  0.40701011  0.18996380  0.15768574    -0.60800
H377        H  0.44867366  0.24368609  0.07263429     0.16100
O378        O  0.49146084  0.19116552  0.05495516    -0.60900
H379        H  0.51602174  0.20460388  0.06207617     0.43100
H380        H  0.37810114  0.18603694  0.15192803     0.43100
C381        C  0.54038832  0.40862178  0.16055332    -0.06000
C382        C  0.54293162  0.43719794  0.18090623    -0.33400
C383        C  0.56332854  0.46854067  0.17411296     0.35900
C384        C  0.58069299  0.47190980  0.14614557    -0.06300
C385        C  0.58276693  0.44151010  0.12781899    -0.33300
C386        C  0.56263839  0.40993969  0.13486268     0.35800
H387        H  0.52568502  0.43657599  0.20061115     0.16100
O388        O  0.56128835  0.49732199  0.19301151    -0.60800
H389        H  0.59545267  0.44354433  0.10610638     0.16100
O390        O  0.55963778  0.38277025  0.11408863    -0.60900
H391        H  0.58084853  0.36562331  0.12113889     0.43100
H392        H  0.58905110  0.50109483  0.20206404     0.43100
C393        C  0.29295764  0.37776084  0.38927556    -0.06000
C394        C  0.26477647  0.40538021  0.38656806    -0.33400
C395        C  0.22414921  0.39799104  0.37912890     0.35900
C396        C  0.21103783  0.36240467  0.37384609    -0.06300
C397        C  0.23910921  0.33482023  0.37709230    -0.33300
C398        C  0.27961431  0.34216380  0.38454207     0.35800
H399        H  0.27413621  0.43282892  0.39047869     0.16100
O400        O  0.19767886  0.42587051  0.37686086    -0.60800
H401        H  0.22985053  0.30735298  0.37316085     0.16100
O402        O  0.30586204  0.31413607  0.38688432    -0.60900
H403        H  0.31596719  0.31192396  0.36650687     0.43100
H404        H  0.19009617  0.42989514  0.39778815     0.43100
C405        C  0.48901215  0.47342244  0.47960809    -0.06000
C406        C  0.46822477  0.47501995  0.00608450    -0.33400
C407        C  0.48394807  0.49355040  0.03173465     0.35900
C408        C  0.52123970  0.01082387  0.03136428    -0.06300
C409        C  0.54228016  0.00867115  0.00501277    -0.33300
C410        C  0.52670089  0.48993695  0.47948484     0.35800
H411        H  0.43943360  0.46186137  0.00697695     0.16100
O412        O  0.46308661  0.49371803  0.05716862    -0.60800
H413        H  0.57111456  0.02170073  0.00399036     0.16100
O414        O  0.54793081  0.48916200  0.45424919    -0.60900
H415        H  0.56708413  0.96920728  0.45779506     0.43100
H416        H  0.44361809  0.51348170  0.05396938     0.43100
C417        C  0.42749545  0.01312913  0.36184922    -0.06000
C418        C  0.44753419  0.01452544  0.33510300    -0.33400
C419        C  0.46892887  0.04508486  0.32775234     0.35900
C420        C  0.46983978  0.07493163  0.34688992    -0.06300
C421        C  0.44421650  0.07578251  0.37047433    -0.33300
C422        C  0.42304696  0.04498676  0.37811749     0.35800
H423        H  0.45083110  0.49047768  0.32198389     0.16100
O424        O  0.49259041  0.04403025  0.30390648    -0.60800
H425        H  0.44451744  0.09874433  0.38532780     0.16100
O426        O  0.40271862  0.04505876  0.40383109    -0.60900
H427        H  0.42323634  0.04023113  0.42075773     0.43100
H428        H  0.47619760  0.55496221  0.28669062     0.43100
C429        C  0.57958555  0.26245678  0.39658357    -0.06000
C430        C  0.55945207  0.26349096  0.42331590    -0.33400
C431        C  0.53639292  0.29302701  0.42994208     0.35900
C432        C  0.53541443  0.32314151  0.41096148    -0.06300
C433        C  0.56078602  0.32449759  0.38719953    -0.33300
C434        C  0.58250635  0.29421373  0.37965910     0.35800
H435        H  0.55721344  0.23960223  0.43698610     0.16100
O436        O  0.51247927  0.29109985  0.45363183    -0.60800
H437        H  0.56013672  0.34753235  0.37229717     0.16100
O438        O  0.60239530  0.29471784  0.35374314    -0.60900
H439        H  0.58165749  0.28957669  0.33701804     0.43100
H440        H  0.48811943  0.27791658  0.44568463     0.43100
C441        C  0.41084439  0.36752311  0.24929034    -0.06000
C442        C  0.39164385  0.34376911  0.26816378    -0.33400
C443        C  0.39955811  0.34463934  0.29964328     0.35900
C444        C  0.42692290  0.36985546  0.31305018    -0.06300
C445        C  0.44601798  0.39368595  0.29422476    -0.33300
C446        C  0.43815819  0.39279604  0.26274300     0.35800
H447        H  0.37100498  0.32371404  0.25851338     0.16100
O448        O  0.38045362  0.32050551  0.31696485    -0.60800
H449        H  0.46687315  0.41355173  0.30392042     0.16100
O450        O  0.45820686  0.41627022  0.24544307    -0.60900
H451        H  0.44076210  0.43756816  0.24310878     0.43100
H452        H  0.39828124  0.29941961  0.31868628     0.43100
C453        C  0.41186604  0.36981664  0.49957551    -0.06000
C454        C  0.38959643  0.39006158  0.01885106    -0.33400
C455        C  0.39803200  0.38897595  0.05026696     0.35900
C456        C  0.42948590  0.36739712  0.06313755    -0.06300
C457        C  0.45203330  0.34751472  0.04382938    -0.33300
C458        C  0.44371604  0.34879444  0.01243676     0.35800
H459        H  0.36564469  0.40716000  0.50958588     0.16100
O460        O  0.37562866  0.40962068  0.06801686    -0.60800
H461        H  0.47625538  0.33066540  0.05302432     0.16100
O462        O  0.46759849  0.32984852  0.49461525    -0.60900
H463        H  0.48947341  0.34657620  0.99017566     0.43100
H464        H  0.35153784  0.39503677  0.07135300     0.43100
O465        O  0.45302290  0.45678017  0.87394029    -0.82300
C466        C  0.40467425  0.37417184  0.96633508     0.97100
O467        O  0.38280359  0.39976909  0.95584585    -0.71400
O468        O  0.43229313  0.45160497  0.95161020    -0.75000
Al469      Al  0.39380538  0.43263345  0.92375469     1.49000
C470        C  0.46954997  0.45574579  0.95245923     0.92300
O471        O  0.50721707  0.38103209  0.91381243    -0.81200
O472        O  0.40939034  0.35915049  0.86331692    -0.74800
Al473      Al  0.47431976  0.41741598  0.89511635     1.90100
O474        O  0.46691876  0.33650681  0.90441813    -0.73900
O475        O  0.35879996  0.36101671  0.90659338    -0.73700
O476        O  0.42175850  0.35365253  0.94866709    -0.79400
O477        O  0.34911341  0.41736791  0.89743119    -0.77600
O478        O  0.42812385  0.40275492  0.90810226    -1.13700
O479        O  0.39989967  0.47173142  0.89627036    -0.72900
C480        C  0.42531756  0.47824499  0.87745925     0.97800
C481        C  0.50162474  0.34822984  0.91055476     0.94200
Al482      Al  0.41529708  0.35655204  0.90600551     1.55600
O483        O  0.48932632  0.44512178  0.93094437    -0.77500
C484        C  0.33571717  0.38592308  0.89787076     0.98400
C485        C  0.43402102  0.37336289  0.84638133     0.93300
O486        O  0.46402614  0.39173219  0.85735068    -0.82800
O487        O  0.54307319  0.09473250  0.65327678    -0.82300
C488        C  0.60493925  0.11421402  0.54449356     0.97100
O489        O  0.58595198  0.13367502  0.56177778    -0.71400
O490        O  0.53896337  0.14865161  0.60533658    -0.75000
Al491      Al  0.59151661  0.13039649  0.60462620     1.49000
C492        C  0.50467820  0.13579842  0.59927456     0.92300
O493        O  0.52094005  0.03812773  0.58067360    -0.81200
O494        O  0.60693921  0.01396383  0.61159993    -0.74800
Al495      Al  0.53449838  0.06786610  0.61593327     1.90100
O496        O  0.57652511  0.03784472  0.55732458    -0.73900
O497        O  0.65780646  0.06956811  0.61410660    -0.73700
O498        O  0.62726462  0.08926405  0.55556024    -0.79400
O499        O  0.64841291  0.12628093  0.60530641    -0.77600
O500        O  0.57974058  0.08398914  0.60238545    -1.13700
O501        O  0.59691023  0.12799502  0.64718825    -0.72900
C502        C  0.57290446  0.11326621  0.66421007     0.97800
C503        C  0.54013308  0.03003316  0.55800899     0.94200
Al504      Al  0.61441904  0.05507157  0.58624794     1.55600
O505        O  0.50015339  0.10275687  0.59642162    -0.77500
C506        C  0.67110283  0.10116880  0.61453582     0.98400
C507        C  0.58361469  0.50764885  0.63198512     0.93300
O508        O  0.55830189  0.03029158  0.63824132    -0.82800
O509        O  0.46668867  0.34441658  0.60711361    -0.82300
C510        C  0.40539974  0.36280297  0.71595239     0.97100
O511        O  0.42484664  0.38211243  0.69864100    -0.71400
O512        O  0.47160596  0.39723872  0.65486014    -0.75000
Al513      Al  0.41886827  0.37914876  0.65592246     1.49000
C514        C  0.50575222  0.38431071  0.66065204     0.92300
O515        O  0.48802320  0.28647274  0.67924845    -0.81200
O516        O  0.40233699  0.26261601  0.64923847    -0.74800
Al517      Al  0.47477611  0.31680792  0.64419504     1.90100
O518        O  0.43311308  0.28694074  0.70352838    -0.73900
O519        O  0.35187723  0.31831941  0.64629041    -0.73700
O520        O  0.38262991  0.33794709  0.70496807    -0.79400
O521        O  0.36200858  0.37494500  0.65549229    -0.77600
O522        O  0.43001771  0.33281401  0.65807313    -1.13700
O523        O  0.41308847  0.37713617  0.61352334    -0.72900
C524        C  0.43710671  0.36314415  0.59636618     0.97800
C525        C  0.46935760  0.27912524  0.70244749     0.94200
Al526      Al  0.39515107  0.30379969  0.67439886     1.57200
O527        O  0.50984340  0.35127213  0.66385559    -0.77500
C528        C  0.33906326  0.34997512  0.64589218     0.98400
C529        C  0.42494108  0.25685206  0.62833868     0.93300
O530        O  0.44974754  0.28002344  0.62160135    -0.82800
O531        O  0.55912273  0.20359463  0.88859880    -0.82300
C532        C  0.60515105  0.12162173  0.79444510     0.97100
O533        O  0.62741204  0.14684964  0.80536570    -0.71400
O534        O  0.57646480  0.19748692  0.80689850    -0.75000
Al535      Al  0.61455416  0.18076573  0.83596562     1.49000
C536        C  0.54018370  0.20512842  0.80789340     0.92300
O537        O  0.50043436  0.13232546  0.84559663    -0.81200
O538        O  0.59700596  0.10733273  0.89717919    -0.74800
Al539      Al  0.53475553  0.16686588  0.86579432     1.90100
O540        O  0.53871783  0.08647832  0.85504984    -0.73900
O541        O  0.64848461  0.10979706  0.85527967    -0.73700
O542        O  0.58613761  0.10197106  0.81179613    -0.79400
O543        O  0.65836896  0.16659892  0.86373447    -0.77600
O544        O  0.57995741  0.15133771  0.85221600    -1.13700
O545        O  0.60671268  0.22173433  0.86138619    -0.72900
C546        C  0.58361520  0.22712687  0.88207458     0.97800
C547        C  0.50462813  0.09927278  0.84836829     0.94200
Al548      Al  0.59158986  0.10508510  0.85456501     1.55600
O549        O  0.52140665  0.19737285  0.83091429    -0.77500
C550        C  0.67147225  0.13501815  0.86421083     0.98400
C551        C  0.57271345  0.12149104  0.91407103     0.93300
O552        O  0.54263377  0.13928539  0.90291294    -0.82800
O553        O  0.04152903  0.34533084  0.90251201    -0.82300
C554        C  0.10202063  0.36554929  0.79376261     0.97100
O555        O  0.08300505  0.38508954  0.81101287    -0.71400
O556        O  0.03704033  0.40016245  0.85538393    -0.75000
Al557      Al  0.08920975  0.38181363  0.85383292     1.49000
C558        C  0.00264689  0.38767091  0.84942223     0.92300
O559        O  0.01851093  0.29050886  0.82915524    -0.81200
O560        O  0.10665844  0.26601235  0.86188253    -0.74800
Al561      Al  0.03223520  0.31925133  0.86479818     1.90100
O562        O  0.07502258  0.28812680  0.80689740    -0.73900
O563        O  0.15602618  0.32216461  0.86337286    -0.73700
O564        O  0.12448553  0.34064694  0.80476496    -0.79400
O565        O  0.14599855  0.37852584  0.85383199    -0.77600
O566        O  0.07763359  0.33535670  0.85153252    -1.13700
O567        O  0.09515153  0.37894527  0.89628568    -0.72900
C568        C  0.07139385  0.36394671  0.91337438     0.97800
C569        C  0.03823698  0.28149786  0.80704492     0.94200
Al570      Al  0.11278066  0.30662374  0.83573821     1.55600
O571        O  0.99786750  0.35473583  0.84603228    -0.77500
C572        C  0.16887918  0.35389187  0.86362574     0.98400
C573        C  0.08244801  0.25932330  0.88155608     0.93300
O574        O  0.05534268  0.28091507  0.88625599    -0.82800
O575        O  0.95185553  0.20277744  0.62342923    -0.82300
C576        C  0.90565461  0.11959747  0.71694035     0.97100
O577        O  0.88313203  0.14438250  0.70590316    -0.71400
O578        O  0.93333837  0.19618000  0.70394839    -0.75000
Al579      Al  0.89539389  0.17838037  0.67511226     1.49000
C580        C  0.96984841  0.20355002  0.70326346     0.92300
O581        O  0.00968669  0.13036220  0.66539018    -0.81200
O582        O  0.91250685  0.10584141  0.61419283    -0.74800
Al583      Al  0.97551957  0.16531581  0.64571106     1.90100
O584        O  0.97102774  0.08462870  0.65552017    -0.73900
O585        O  0.86160924  0.10683059  0.65682732    -0.73700
O586        O  0.92465762  0.09992506  0.69974973    -0.79400
O587        O  0.85180530  0.16336983  0.64760673    -0.77600
O588        O  0.93017180  0.14941424  0.65912350    -1.13700
O589        O  0.90241452  0.21915269  0.64927486    -0.72900
C590        C  0.92620499  0.22536455  0.62918382     0.97800
C591        C  0.00531074  0.09739187  0.66184205     0.94200
Al592      Al  0.91847485  0.10303449  0.65685222     1.55600
O593        O  0.98911479  0.19511161  0.68076878    -0.77500
C594        C  0.83857578  0.13175888  0.64779114     0.98400
C595        C  0.93673427  0.12055557  0.59727688     0.93300
O596        O  0.96697918  0.13837619  0.60846727    -0.82800
O597        O  0.05703280  0.45537146  0.63565567    -0.82300
C598        C  0.10410071  0.37248546  0.54359537     0.97100
O599        O  0.12632494  0.39806739  0.55404144    -0.71400
O600        O  0.07792005  0.45047623  0.55762213    -0.75000
Al601      Al  0.11575051  0.43130614  0.58580743     1.49000
C602        C  0.04092610  0.45564657  0.55730998     0.92300
O603        O  0.00143255  0.38037284  0.59526371    -0.81200
O604        O  0.09898703  0.35876753  0.64664819    -0.74800
Al605      Al  0.03487549  0.41655740  0.61427883     1.90100
O606        O  0.04085616  0.33585780  0.60610228    -0.73900
O607        O  0.14973050  0.35947071  0.60318261    -0.73700
O608        O  0.08631083  0.35219504  0.56131339    -0.79400
O609        O  0.15979406  0.41577856  0.61252871    -0.77600
O610        O  0.08082956  0.40169320  0.60146463    -1.13700
O611        O  0.10997468  0.47085899  0.61298007    -0.72900
C612        C  0.08475674  0.47705757  0.63198642     0.97800
C613        C  0.00637746  0.34760990  0.59948262     0.94200
Al614      Al  0.09292166  0.35547771  0.60403168     1.55600
O615        O  0.02096747  0.44500324  0.57880755    -0.77500
C616        C  0.17311133  0.38446825  0.61170224     0.98400
C617        C  0.07419040  0.37293737  0.66327284     0.93300
O618        O  0.04403791  0.39053692  0.65191362    -0.82800
O619        O  0.96809192  0.09635121  0.85874682    -0.82300
C620        C  0.90607153  0.11580921  0.96667635     0.97100
O621        O  0.92503438  0.13537917  0.94915660    -0.71400
O622        O  0.97200689  0.14976283  0.90505195    -0.75000
Al623      Al  0.91913597  0.13174512  0.90624454     1.49000
C624        C  0.00603169  0.13696163  0.91178647     0.92300
O625        O  0.98819001  0.03943700  0.93071814    -0.81200
O626        O  0.90169099  0.01562621  0.90002673    -0.74800
Al627      Al  0.97533952  0.06930258  0.89585347     1.90100
O628        O  0.93300443  0.03921296  0.95453578    -0.73900
O629        O  0.85133746  0.07143268  0.89784364    -0.73700
O630        O  0.88313231  0.09098629  0.95591823    -0.79400
O631        O  0.86217563  0.12811660  0.90593410    -0.77600
O632        O  0.93015279  0.08542068  0.90909769    -1.13700
O633        O  0.91358826  0.12849499  0.86354921    -0.72900
C634        C  0.93818502  0.11383717  0.84707573     0.97800
C635        C  0.96932251  0.03153366  0.95356708     0.94200
Al636      Al  0.89503795  0.05666406  0.92548892     1.55600
O637        O  0.00995892  0.10400852  0.91569027    -0.77500
C638        C  0.83870307  0.10316201  0.89728928     0.98400
C639        C  0.92497435  0.00951813  0.87961480     0.93300
O640        O  0.95072795  0.03217982  0.87349753    -0.82800
C641        C  0.98895629  0.01276831  0.97998611    -0.06000
C642        C  0.97142062  0.51443206  0.00785018    -0.33400
C643        C  0.98745188  0.49550482  0.53312347     0.35900
C644        C  0.02175380  0.47463983  0.53091451    -0.06300
C645        C  0.03966092  0.47332484  0.50320049    -0.33300
C646        C  0.02349775  0.99208421  0.47784766     0.35800
H647        H  0.94515219  0.53065879  0.01018033     0.16100
O648        O  0.97049997  0.49897854  0.56015711    -0.60800
H649        H  0.06622422  0.95742114  0.50106568     0.16100
O650        O  0.04149736  0.98969331  0.95115588    -0.60900
H651        H  0.02925599  0.96842143  0.44075118     0.43100
H652        H  0.94843794  0.48114633  0.05939648     0.43100
C653        C  0.91227815  0.11982880  0.00003291    -0.06000
C654        C  0.88699060  0.10132176  0.51862109    -0.33400
C655        C  0.89494685  0.10048981  0.55010560     0.35900
C656        C  0.92886595  0.11847742  0.56383165    -0.06300
C657        C  0.95399161  0.13717302  0.54521875    -0.33300
C658        C  0.94593597  0.13807128  0.01373434     0.35800
H659        H  0.86108800  0.08686548  0.00870427     0.16100
O660        O  0.86891582  0.08235651  0.56710803    -0.60800
H661        H  0.98007961  0.15143101  0.55504927     0.16100
O662        O  0.97228492  0.15558404  0.99660153    -0.60900
H663        H  0.96239605  0.18047223  0.99490077     0.43100
H664        H  0.87921655  0.05758902  0.56857607     0.43100
C665        C  0.93080690  0.11572866  0.81364834    -0.06000
C666        C  0.89573547  0.13212976  0.80093423    -0.33400
C667        C  0.88612891  0.13213554  0.76965894     0.35900
C668        C  0.91184213  0.11566211  0.75021855    -0.06300
C669        C  0.94673761  0.09901465  0.76285953    -0.33300
C670        C  0.95632279  0.09887518  0.79418295     0.35800
H671        H  0.87526298  0.14481670  0.81527818     0.16100
O672        O  0.85169560  0.14877871  0.75841556    -0.60800
H673        H  0.96740377  0.08684502  0.74836732     0.16100
O674        O  0.99114154  0.08275743  0.80531692    -0.60900
H675        H  0.98431893  0.05706414  0.80702434     0.43100
H676        H  0.83120036  0.12955650  0.75607130     0.43100
C677        C  0.03991796  0.07318873  0.66215020    -0.06000
C678        C  0.04122638  0.04350173  0.68147441    -0.33400
C679        C  0.06324943  0.01328131  0.67484672     0.35900
C680        C  0.08259926  0.01180946  0.64764782    -0.06300
C681        C  0.08602901  0.04334263  0.63076348    -0.33300
C682        C  0.06491381  0.07408058  0.63799786     0.35800
H683        H  0.02230115  0.04252578  0.70021831     0.16100
O684        O  0.06077468  0.98349696  0.69272762    -0.60800
H685        H  0.10057883  0.04285979  0.60976414     0.16100
O686        O  0.06405609  0.10276754  0.61864512    -0.60900
H687        H  0.08573689  0.11885660  0.62706978     0.43100
H688        H  0.08747376  0.98146294  0.70402196     0.43100
C689        C  0.92937956  0.26077954  0.61447527    -0.06000
C690        C  0.94900808  0.26228690  0.58756657    -0.33400
C691        C  0.97111742  0.29246655  0.58037929     0.35900
C692        C  0.97229218  0.32247158  0.59932801    -0.06300
C693        C  0.94752770  0.32318545  0.62349628    -0.33300
C694        C  0.92630881  0.29242036  0.63134375     0.35800
H695        H  0.95159400  0.23839825  0.57410719     0.16100
O696        O  0.99525772  0.29079321  0.55686816    -0.60800
H697        H  0.94836846  0.34608954  0.63843689     0.16100
O698        O  0.90696339  0.29235828  0.65752297    -0.60900
H699        H  0.92793405  0.28686549  0.67397722     0.43100
H700        H  0.97677634  0.29238916  0.53826193     0.43100
C701        C  0.01925680  0.26242039  0.78053264    -0.06000
C702        C  0.03498151  0.26709626  0.75216459    -0.33400
C703        C  0.01988964  0.24767708  0.72681050     0.35900
C704        C  0.98894839  0.22273103  0.72965797    -0.06300
C705        C  0.97328405  0.21802871  0.75803821    -0.33300
C706        C  0.98819796  0.23759185  0.78332548     0.35800
H707        H  0.05895042  0.28614780  0.74957288     0.16100
O708        O  0.03492684  0.25393009  0.69933434    -0.60800
H709        H  0.94935729  0.19892975  0.76068806     0.16100
O710        O  0.97277879  0.23165514  0.81070691    -0.60900
H711        H  0.98977228  0.21276244  0.82067993     0.43100
H712        H  0.01726032  0.27237515  0.68935514     0.43100
C713        C  0.08089864  0.22422462  0.89695494    -0.06000
C714        C  0.08475611  0.19302726  0.87989926    -0.33400
C715        C  0.06480953  0.16151262  0.88741592     0.35900
C716        C  0.04077165  0.16124861  0.91215665    -0.06300
C717        C  0.04196922  0.19064384  0.93163000    -0.33300
C718        C  0.06246261  0.22179364  0.92452732     0.35800
H719        H  0.09859332  0.19427396  0.85860838     0.16100
O720        O  0.06377128  0.13324750  0.86773399    -0.60800
H721        H  0.02359345  0.19076322  0.95070728     0.16100
O722        O  0.05917611  0.25134208  0.94238459    -0.60900
H723        H  0.08623891  0.25500080  0.95276667     0.43100
H724        H  0.08153069  0.11501368  0.87790904     0.43100
C725        C  0.96856739  0.41239171  0.84909452    -0.06000
C726        C  0.94414821  0.41161605  0.87346827    -0.33400
C727        C  0.92361816  0.44238750  0.88150895     0.35900
C728        C  0.92729791  0.47420349  0.86477717    -0.06300
C729        C  0.94639296  0.47280802  0.83761223    -0.33300
C730        C  0.96793173  0.44262262  0.83025994     0.35800
H731        H  0.94489236  0.38865631  0.88845868     0.16100
O732        O  0.90544571  0.44249793  0.90818686    -0.60800
H733        H  0.94918136  0.49677174  0.82413639     0.16100
O734        O  0.99141269  0.44412804  0.80627219    -0.60900
H735        H  0.01626322  0.45672792  0.81403135     0.43100
H736        H  0.87781044  0.43374578  0.90279719     0.43100
C737        C  0.09670175  0.36987784  0.76040798    -0.06000
C738        C  0.11759968  0.34710798  0.74207763    -0.33400
C739        C  0.11016796  0.34723476  0.71059475     0.35900
C740        C  0.08117700  0.37037882  0.69663745    -0.06300
C741        C  0.06032257  0.39323336  0.71490669    -0.33300
C742        C  0.06795628  0.39327273  0.74640838     0.35800
H743        H  0.13936470  0.32840160  0.75215083     0.16100
O744        O  0.13057448  0.32372784  0.69387431    -0.60800
H745        H  0.03810624  0.41149706  0.70477833     0.16100
O746        O  0.04610452  0.41549768  0.76319928    -0.60900
H747        H  0.06117141  0.43839773  0.76426140     0.43100
H748        H  0.15646750  0.33569272  0.69083713     0.43100
C749        C  0.09741000  0.36805486  0.51029979    -0.06000
C750        C  0.11911789  0.38945094  0.49120795    -0.33400
C751        C  0.11061027  0.38898415  0.95979243     0.35900
C752        C  0.07960031  0.36690594  0.94667254    -0.06300
C753        C  0.05800932  0.34541241  0.96574030    -0.33300
C754        C  0.06646637  0.34600512  0.49715757     0.35800
H755        H  0.14254886  0.40717030  0.50062307     0.16100
O756        O  0.13243308  0.41080483  0.94229739    -0.60800
H757        H  0.03431977  0.32794217  0.95634518     0.16100
O758        O  0.04342125  0.32554815  0.51473772    -0.60900
H759        H  0.02031332  0.34088897  0.01856793     0.43100
H760        H  0.15752223  0.39761183  0.93973216     0.43100
C761        C  0.71403531  0.12702920  0.87366785    -0.06000
C762        C  0.74289873  0.15435800  0.87449808    -0.33400
C763        C  0.78355341  0.14688077  0.88140556     0.35900
C764        C  0.79614378  0.11150202  0.88808713    -0.06300
C765        C  0.76725183  0.08423490  0.88731773    -0.33300
C766        C  0.72665488  0.09169443  0.88040167     0.35800
H767        H  0.73408840  0.18158551  0.86915720     0.16100
O768        O  0.81065584  0.17447766  0.88136544    -0.60800
H769        H  0.77601307  0.05699044  0.89262640     0.16100
O770        O  0.69961241  0.06404704  0.88037976    -0.60900
H771        H  0.68988580  0.06400726  0.90095199     0.43100
H772        H  0.82036803  0.17444904  0.86076217     0.43100
C773        C  0.21597370  0.37643586  0.61972986    -0.06000
C774        C  0.23130185  0.34300777  0.61198277    -0.33400
C775        C  0.27141354  0.33413563  0.61961010     0.35900
C776        C  0.29697392  0.35861131  0.63574145    -0.06300
C777        C  0.28189515  0.39234886  0.64274649    -0.33300
C778        C  0.24194740  0.40132076  0.63494399     0.35800
H779        H  0.21217375  0.32358971  0.59977001     0.16100
O780        O  0.28515051  0.30152574  0.61113253    -0.60800
H781        H  0.30095943  0.41186887  0.65488826     0.16100
O782        O  0.22869416  0.43440775  0.64259771    -0.60900
H783        H  0.21923370  0.43143185  0.66313525     0.43100
H784        H  0.29611852  0.30572119  0.59125725     0.43100
C785        C  0.52078940  0.22359689  0.78114904    -0.06000
C786        C  0.53735748  0.21979377  0.75302009    -0.33400
C787        C  0.52173524  0.23821109  0.72728644     0.35900
C788        C  0.48887556  0.26091874  0.72929590    -0.06300
C789        C  0.47240500  0.26486216  0.75746971    -0.33300
C790        C  0.48820120  0.24660495  0.78325326     0.35800
H791        H  0.56260131  0.20229007  0.75086953     0.16100
O792        O  0.53851801  0.23342279  0.70032614    -0.60800
H793        H  0.44722106  0.28244394  0.75963193     0.16100
O794        O  0.47204546  0.25202962  0.81037699    -0.60900
H795        H  0.48815093  0.27165328  0.82030642     0.43100
H796        H  0.52456026  0.21234798  0.69087141     0.43100
C797        C  0.71360397  0.10904935  0.62423567    -0.06000
C798        C  0.74155541  0.08125541  0.62645626    -0.33400
C799        C  0.78226407  0.08824377  0.63373880     0.35900
C800        C  0.79586426  0.12367653  0.63898144    -0.06300
C801        C  0.76787131  0.15142963  0.63695919    -0.33300
C802        C  0.72714609  0.14442067  0.62985695     0.35800
H803        H  0.73201809  0.05396614  0.62195248     0.16100
O804        O  0.80859219  0.06026543  0.63460021    -0.60800
H805        H  0.77744629  0.17875240  0.64123903     0.16100
O806        O  0.70097110  0.17252384  0.62821950    -0.60900
H807        H  0.69480769  0.17697774  0.64941194     0.43100
H808        H  0.80722658  0.04935848  0.65493519     0.43100
C809        C  0.58099390  0.11611532  0.69751864    -0.06000
C810        C  0.56369032  0.09109076  0.71630911    -0.33400
C811        C  0.57300333  0.09113832  0.74766301     0.35900
C812        C  0.59947928  0.11707766  0.76108650    -0.06300
C813        C  0.61718605  0.14181840  0.74221679    -0.33300
C814        C  0.60841594  0.14137786  0.71080429     0.35800
H815        H  0.54324970  0.07088931  0.70664846     0.16100
O816        O  0.55527661  0.06606232  0.76489829    -0.60800
H817        H  0.63732684  0.16228145  0.75182042     0.16100
O818        O  0.62599711  0.16650575  0.69348176    -0.60900
H819        H  0.65329563  0.15737852  0.69108163     0.43100
H820        H  0.57468564  0.04616239  0.76718445     0.43100
C821        C  0.59917861  0.11855307  0.51106469    -0.06000
C822        C  0.61727720  0.09414827  0.49237990    -0.33400
C823        C  0.60826812  0.09410144  0.96098644     0.35900
C824        C  0.58069340  0.11888277  0.94743921    -0.06300
C825        C  0.56306355  0.14364094  0.96602009    -0.33300
C826        C  0.57225523  0.14382078  0.49741106     0.35800
H827        H  0.63784330  0.07424500  0.50214391     0.16100
O828        O  0.62654386  0.06950478  0.94388136    -0.60800
H829        H  0.54244863  0.16345905  0.95616346     0.16100
O830        O  0.55392743  0.16839408  0.51446247    -0.60900
H831        H  0.57247400  0.18916019  0.51606152     0.43100
H832        H  0.60849709  0.04838276  0.94298155     0.43100
C833        C  0.47018741  0.16008646  0.59864282    -0.06000
C834        C  0.44593455  0.15928095  0.62310068    -0.33400
C835        C  0.42486002  0.18980372  0.63087075     0.35900
C836        C  0.42778658  0.22143113  0.61376472    -0.06300
C837        C  0.44656900  0.21990491  0.58644782    -0.33300
C838        C  0.46861021  0.18989787  0.57931407     0.35800
H839        H  0.44726626  0.13657153  0.63837275     0.16100
O840        O  0.40700885  0.18996445  0.65768455    -0.60800
H841        H  0.44867480  0.24368752  0.57263416     0.16100
O842        O  0.49146222  0.19116693  0.55495524    -0.60900
H843        H  0.51602326  0.20460479  0.56207689     0.43100
H844        H  0.37809990  0.18603730  0.65192652     0.43100
C845        C  0.54038774  0.40862248  0.66055399    -0.06000
C846        C  0.54293109  0.43719872  0.68090684    -0.33400
C847        C  0.56332789  0.46854147  0.67411344     0.35900
C848        C  0.58069218  0.47191049  0.64614599    -0.06300
C849        C  0.58276618  0.44151073  0.62781951    -0.33300
C850        C  0.56263778  0.40994031  0.63486334     0.35800
H851        H  0.52568457  0.43657686  0.70061180     0.16100
O852        O  0.56128759  0.49732290  0.69301188    -0.60800
H853        H  0.59545176  0.44354495  0.60610684     0.16100
O854        O  0.55963702  0.38277085  0.61408931    -0.60900
H855        H  0.58084847  0.36562440  0.62113901     0.43100
H856        H  0.58905029  0.50109568  0.70206463     0.43100
C857        C  0.29295763  0.37776141  0.88927555    -0.06000
C858        C  0.26477675  0.40538095  0.88656655    -0.33400
C859        C  0.22414954  0.39799178  0.87912728     0.35900
C860        C  0.21103792  0.36240523  0.87384580    -0.06300
C861        C  0.23910900  0.33482068  0.87709347    -0.33300
C862        C  0.27961403  0.34216421  0.88454343     0.35800
H863        H  0.27413671  0.43282982  0.89047611     0.16100
O864        O  0.19767948  0.42587143  0.87685793    -0.60800
H865        H  0.22985013  0.30735330  0.87316313     0.16100
O866        O  0.30586141  0.31413619  0.88688739    -0.60900
H867        H  0.31596645  0.31192208  0.86651035     0.43100
H868        H  0.19009310  0.42989459  0.89778425     0.43100
C869        C  0.48901231  0.47342219  0.97960835    -0.06000
C870        C  0.46822355  0.47502188  0.50608366    -0.33400
C871        C  0.48394664  0.49355257  0.53173373     0.35900
C872        C  0.52123933  0.01082430  0.53136399    -0.06300
C873        C  0.54228042  0.00867047  0.50501285    -0.33300
C874        C  0.52670025  0.48993805  0.97948456     0.35800
H875        H  0.43943163  0.46186448  0.50697570     0.16100
O876        O  0.46308383  0.49372210  0.55716700    -0.60800
H877        H  0.57111535  0.02169914  0.50399069     0.16100
O878        O  0.54792927  0.48916448  0.95424844    -0.60900
H879        H  0.56708280  0.96920832  0.95779372     0.43100
H880        H  0.44361715  0.51348699  0.55396704     0.43100
C881        C  0.42749585  0.01312915  0.86184952    -0.06000
C882        C  0.44753515  0.01452537  0.83510355    -0.33400
C883        C  0.46892985  0.04508481  0.82775304     0.35900
C884        C  0.46984001  0.07493175  0.84689040    -0.06300
C885        C  0.44421605  0.07578275  0.87047436    -0.33300
C886        C  0.42304665  0.04498691  0.87811748     0.35800
H887        H  0.45083121  0.49047778  0.82198436     0.16100
O888        O  0.49259235  0.04403003  0.80390777    -0.60800
H889        H  0.44451634  0.09874474  0.88532762     0.16100
O890        O  0.40271761  0.04505905  0.90383073    -0.60900
H891        H  0.42323497  0.04023174  0.92075766     0.43100
H892        H  0.47619880  0.55496182  0.78669119     0.43100
C893        C  0.57958541  0.26245779  0.89658347    -0.06000
C894        C  0.55945275  0.26349210  0.92331617    -0.33400
C895        C  0.53639369  0.29302811  0.92994254     0.35900
C896        C  0.53541444  0.32314240  0.91096163    -0.06300
C897        C  0.56078530  0.32449841  0.88719921    -0.33300
C898        C  0.58250554  0.29421459  0.87965866     0.35800
H899        H  0.55721460  0.23960343  0.93698654     0.16100
O900        O  0.51248065  0.29110101  0.95363267    -0.60800
H901        H  0.56013541  0.34753305  0.87229666     0.16100
O902        O  0.60239367  0.29471846  0.85374230    -0.60900
H903        H  0.58165544  0.28957703  0.83701755     0.43100
H904        H  0.48812050  0.27791795  0.94568570     0.43100
C905        C  0.41084344  0.36752336  0.74929039    -0.06000
C906        C  0.39164375  0.34376880  0.76816385    -0.33400
C907        C  0.39955836  0.34463893  0.79964335     0.35900
C908        C  0.42692252  0.36985561  0.81305020    -0.06300
C909        C  0.44601672  0.39368670  0.79422478    -0.33300
C910        C  0.43815665  0.39279680  0.76274304     0.35800
H911        H  0.37100535  0.32371336  0.75851350     0.16100
O912        O  0.38045475  0.32050452  0.81696491    -0.60800
H913        H  0.46687144  0.41355292  0.80392042     0.16100
O914        O  0.45820454  0.41627146  0.74544306    -0.60900
H915        H  0.44075862  0.43756841  0.74310793     0.43100
H916        H  0.39828319  0.29941873  0.81868605     0.43100
C917        C  0.41186562  0.36981622  0.99957549    -0.06000
C918        C  0.38959679  0.39006213  0.51885097    -0.33400
C919        C  0.39803213  0.38897659  0.55026688     0.35900
C920        C  0.42948604  0.36739791  0.56313764    -0.06300
C921        C  0.45203347  0.34751533  0.54382960    -0.33300
C922        C  0.44371631  0.34879481  0.51243697     0.35800
H923        H  0.36564429  0.40715949  0.00958608     0.16100
O924        O  0.37562860  0.40962134  0.56801665    -0.60800
H925        H  0.47625547  0.33066598  0.55302470     0.16100
O926        O  0.46759839  0.32984859  0.99461488    -0.60900
H927        H  0.48947335  0.34657590  0.49017564     0.43100
H928        H  0.35153780  0.39503738  0.57135277     0.43100
O929        O  0.45302347  0.95678050  0.37394051    -0.82300
C930        C  0.40467431  0.87417203  0.46633499     0.97100
O931        O  0.38280382  0.89976936  0.45584570    -0.71400
O932        O  0.43229291  0.95160552  0.45160958    -0.75000
Al933      Al  0.39380525  0.93263346  0.42375426     1.49000
C934        C  0.46954983  0.95574599  0.45245896     0.92300
O935        O  0.50721725  0.88103171  0.41381203    -0.81200
O936        O  0.40939053  0.85915040  0.36331680    -0.74800
Al937      Al  0.47431992  0.91741592  0.39511629     1.90100
O938        O  0.46691862  0.83650659  0.40441812    -0.73900
O939        O  0.35879988  0.86101647  0.40659326    -0.73700
O940        O  0.42175840  0.85365252  0.44866704    -0.79400
O941        O  0.34911321  0.91736758  0.39743095    -0.77600
O942        O  0.42812388  0.90275488  0.40810208    -1.13700
O943        O  0.39989921  0.97173111  0.39626957    -0.72900
C944        C  0.42531764  0.97824499  0.37745896     0.97800
C945        C  0.50162471  0.84822946  0.41055452     0.94200
Al946      Al  0.41529708  0.85655198  0.40600541     1.55600
O947        O  0.48932647  0.94512141  0.43094446    -0.77500
C948        C  0.33571702  0.88592277  0.39787065     0.98400
C949        C  0.43402112  0.87336296  0.34638121     0.93300
O950        O  0.46402609  0.89173247  0.35735053    -0.82800
O951        O  0.54307419  0.59473187  0.15327701    -0.82300
C952        C  0.60493944  0.61421385  0.04449360     0.97100
O953        O  0.58595214  0.63367467  0.06177793    -0.71400
O954        O  0.53896390  0.64865113  0.10533684    -0.75000
Al955      Al  0.59151712  0.63039610  0.10462629     1.49000
C956        C  0.50467876  0.63579782  0.09927497     0.92300
O957        O  0.52094062  0.53812731  0.08067382    -0.81200
O958        O  0.60693992  0.51396327  0.11159974    -0.74800
Al959      Al  0.53449918  0.56786555  0.11593351     1.90100
O960        O  0.57652547  0.53784460  0.05732452    -0.73900
O961        O  0.65780713  0.56956780  0.11410646    -0.73700
O962        O  0.62726499  0.58926394  0.05556018    -0.79400
O963        O  0.64841340  0.62628061  0.10530628    -0.77600
O964        O  0.57974122  0.58398873  0.10238556    -1.13700
O965        O  0.59691099  0.62799463  0.14718832    -0.72900
C966        C  0.57290546  0.61326562  0.16421022     0.97800
C967        C  0.54013349  0.53003289  0.05800909     0.94200
Al968      Al  0.61441960  0.55507127  0.08624784     1.55600
O969        O  0.50015407  0.60275626  0.09642206    -0.77500
C970        C  0.67110338  0.60116854  0.11453578     0.98400
C971        C  0.58361564  0.00764815  0.13198515     0.93300
O972        O  0.55830287  0.53029099  0.13824140    -0.82800
O973        O  0.46668874  0.84441541  0.10711329    -0.82300
C974        C  0.40540074  0.86280246  0.21595231     0.97100
O975        O  0.42484760  0.88211181  0.19864082    -0.71400
O976        O  0.47160664  0.89723775  0.15485973    -0.75000
Al977      Al  0.41886893  0.87914788  0.15592231     1.49000
C978        C  0.50575294  0.88430972  0.16065142     0.92300
O979        O  0.48802385  0.78647169  0.17924820    -0.81200
O980        O  0.40233762  0.76261500  0.14923908    -0.74800
Al981      Al  0.47477649  0.81680684  0.14419472     1.90100
O982        O  0.43311410  0.78694025  0.20352859    -0.73900
O983        O  0.35187792  0.81831833  0.14629077    -0.73700
O984        O  0.38263086  0.83794656  0.20496813    -0.79400
O985        O  0.36200927  0.87494398  0.15549231    -0.77600
O986        O  0.43001835  0.83281310  0.15807308    -1.13700
O987        O  0.41308880  0.87713522  0.11352327    -0.72900
C988        C  0.43710679  0.86314308  0.09636600     0.97800
C989        C  0.46935850  0.77912449  0.20244745     0.94200
Al990      Al  0.39515188  0.80379891  0.17439915     1.57200
O991        O  0.50984414  0.85127111  0.16385491    -0.77500
C992        C  0.33906393  0.84997403  0.14589237     0.98400
C993        C  0.42494124  0.75685096  0.12833904     0.93300
O994        O  0.44974742  0.78002236  0.12160124    -0.82800
O995        O  0.55912335  0.70359347  0.38859897    -0.82300
C996        C  0.60515198  0.62162070  0.29444530     0.97100
O997        O  0.62741295  0.64684859  0.30536596    -0.71400
O998        O  0.57646541  0.69748577  0.30689829    -0.75000
Al999      Al  0.61455464  0.68076484  0.33596563     1.49000
C1000       C  0.54018442  0.70512757  0.30789328     0.92300
O1001       O  0.50043480  0.63232495  0.34559614    -0.81200
O1002       O  0.59700593  0.60733189  0.39717931    -0.74800
Al1003     Al  0.53475595  0.66686510  0.36579420     1.90100
O1004       O  0.53871794  0.58647760  0.35504952    -0.73900
O1005       O  0.64848496  0.60979619  0.35528013    -0.73700
O1006       O  0.58613833  0.60197015  0.31179627    -0.79400
O1007       O  0.65836925  0.66659818  0.36373461    -0.77600
O1008       O  0.57995783  0.65133684  0.35221600    -1.13700
O1009       O  0.60671273  0.72173369  0.36138606    -0.72900
C1010       C  0.58361542  0.72712600  0.38207463     0.97800
C1011       C  0.50462835  0.59927224  0.34836776     0.94200
Al1012     Al  0.59159017  0.60508423  0.35456512     1.55600
O1013       O  0.52140743  0.69737233  0.33091428    -0.77500
C1014       C  0.67147258  0.63501741  0.36421105     0.98400
C1015       C  0.57271335  0.62149027  0.41407101     0.93300
O1016       O  0.54263363  0.63928445  0.40291276    -0.82800
O1017       O  0.04152815  0.84533136  0.40251161    -0.82300
C1018       C  0.10202086  0.86555017  0.29376260     0.97100
O1019       O  0.08300516  0.88509031  0.31101285    -0.71400
O1020       O  0.03703978  0.90016265  0.35538345    -0.75000
Al1021     Al  0.08920944  0.88181406  0.35383287     1.49000
C1022       C  0.00264646  0.88767093  0.34942139     0.92300
O1023       O  0.01851103  0.79050871  0.32915521    -0.81200
O1024       O  0.10665729  0.76601241  0.36188120    -0.74800
Al1025     Al  0.03223498  0.81925160  0.36479790     1.90100
O1026       O  0.07502202  0.78812829  0.30689635    -0.73900
O1027       O  0.15602570  0.82216450  0.36337263    -0.73700
O1028       O  0.12448580  0.84064790  0.30476495    -0.79400
O1029       O  0.14599834  0.87852599  0.35383245    -0.77600
O1030       O  0.07763328  0.83535716  0.35153220    -1.13700
O1031       O  0.09515082  0.87894554  0.39628558    -0.72900
C1032       C  0.07139301  0.86394700  0.41337415     0.97800
C1033       C  0.03823667  0.78149857  0.30704443     0.94200
Al1034     Al  0.11278019  0.80662431  0.33573758     1.55600
O1035       O  0.99786724  0.85473581  0.34603159    -0.77500
C1036       C  0.16887881  0.85389174  0.36362598     0.98400
C1037       C  0.08244760  0.75932356  0.38155532     0.93300
O1038       O  0.05534299  0.78091575  0.38625606    -0.82800
O1039       O  0.95185551  0.70277710  0.12342926    -0.82300
C1040       C  0.90565489  0.61959691  0.21694052     0.97100
O1041       O  0.88313217  0.64438184  0.20590338    -0.71400
O1042       O  0.93333905  0.69617907  0.20394911    -0.75000
Al1043     Al  0.89539445  0.67838007  0.17511285     1.49000
C1044       C  0.96984891  0.70354960  0.20326375     0.92300
O1045       O  0.00968709  0.63036215  0.16539046    -0.81200
O1046       O  0.91250692  0.60584167  0.11419300    -0.74800
Al1047     Al  0.97551986  0.66531567  0.14571124     1.90100
O1048       O  0.97102816  0.58462866  0.15552020    -0.73900
O1049       O  0.86160966  0.60683061  0.15682758    -0.73700
O1050       O  0.92465810  0.59992468  0.19974990    -0.79400
O1051       O  0.85180574  0.66336994  0.14760719    -0.77600
O1052       O  0.93017220  0.64941404  0.15912384    -1.13700
O1053       O  0.90241561  0.71915279  0.14927588    -0.72900
C1054       C  0.92620570  0.72536459  0.12918454     0.97800
C1055       C  0.00531116  0.59739183  0.16184217     0.94200
Al1056     Al  0.91847521  0.60303437  0.15685238     1.55600
O1057       O  0.98911504  0.69511167  0.18076882    -0.77500
C1058       C  0.83857617  0.63175896  0.14779157     0.98400
C1059       C  0.93673425  0.62055593  0.09727705     0.93300
O1060       O  0.96697956  0.63837595  0.10846751    -0.82800
O1061       O  0.05703333  0.95537191  0.13565564    -0.82300
C1062       C  0.10410163  0.87248605  0.04359553     0.97100
O1063       O  0.12632578  0.89806796  0.05404169    -0.71400
O1064       O  0.07792132  0.95047718  0.05762258    -0.75000
Al1065     Al  0.11575154  0.93130651  0.08580786     1.49000
C1066       C  0.04092729  0.95564729  0.05731021     0.92300
O1067       O  0.00143322  0.88037316  0.09526373    -0.81200
O1068       O  0.09898748  0.85876780  0.14664829    -0.74800
Al1069     Al  0.03487618  0.91655777  0.11427882     1.90100
O1070       O  0.04085687  0.83585819  0.10610232    -0.73900
O1071       O  0.14973100  0.85947077  0.10318281    -0.73700
O1072       O  0.08631160  0.85219559  0.06131348    -0.79400
O1073       O  0.15979494  0.91577845  0.11252918    -0.77600
O1074       O  0.08083033  0.90169357  0.10146479    -1.13700
O1075       O  0.10997585  0.97085914  0.11298070    -0.72900
C1076       C  0.08475754  0.97705784  0.13198674     0.97800
C1077       C  0.00637815  0.84761026  0.09948279     0.94200
Al1078     Al  0.09292227  0.85547807  0.10403177     1.55600
O1079       O  0.02096842  0.94500345  0.07880746    -0.77500
C1080       C  0.17311200  0.88446808  0.11170262     0.98400
C1081       C  0.07419088  0.87293777  0.16327290     0.93300
O1082       O  0.04403849  0.89053742  0.15191365    -0.82800
O1083       O  0.96809271  0.59635142  0.35874683    -0.82300
C1084       C  0.90607172  0.61580797  0.46667632     0.97100
O1085       O  0.92503456  0.63537820  0.44915676    -0.71400
O1086       O  0.97200726  0.64976262  0.40505224    -0.75000
Al1087     Al  0.91913639  0.63174481  0.40624463     1.49000
C1088       C  0.00603211  0.63696148  0.41178665     0.92300
O1089       O  0.98819042  0.53943667  0.43071789    -0.81200
O1090       O  0.90169125  0.51562622  0.40002552    -0.74800
Al1091     Al  0.97534017  0.56930248  0.39585331     1.90100
O1092       O  0.93300428  0.53921189  0.45453485    -0.73900
O1093       O  0.85133803  0.57143248  0.39784278    -0.73700
O1094       O  0.88313241  0.59098525  0.45591786    -0.79400
O1095       O  0.86217599  0.62811626  0.40593403    -0.77600
O1096       O  0.93015323  0.58542036  0.40909739    -1.13700
O1097       O  0.91358902  0.62849523  0.36354924    -0.72900
C1098       C  0.93818584  0.61383749  0.34707577     0.97800
C1099       C  0.96932246  0.53153284  0.45356647     0.94200
Al1100     Al  0.89503818  0.55666352  0.42548811     1.55600
O1101       O  0.00995938  0.60400839  0.41569048    -0.77500
C1102       C  0.83870356  0.60316174  0.39728881     0.98400
C1103       C  0.92497492  0.50951821  0.37961380     0.93300
O1104       O  0.95072896  0.53217974  0.37349701    -0.82800
C1105       C  0.98895574  0.51276725  0.47998553    -0.06000
C1106       C  0.97142019  0.01443182  0.50784947    -0.33400
C1107       C  0.98745345  0.99550617  0.03312416     0.35900
C1108       C  0.02175507  0.97464085  0.03091486    -0.06300
C1109       C  0.03966170  0.97332567  0.00320068    -0.33300
C1110       C  0.02349889  0.49208602  0.97784830     0.35800
H1111       H  0.94515223  0.03065922  0.51017953     0.16100
O1112       O  0.97050224  0.99898014  0.06015803    -0.60800
H1113       H  0.06622618  0.45742352  0.00106607     0.16100
O1114       O  0.04149772  0.48969290  0.45115589    -0.60900
H1115       H  0.02925772  0.46842356  0.94075169     0.43100
H1116       H  0.94843589  0.98114829  0.55939549     0.43100
C1117       C  0.91227851  0.61982704  0.50003298    -0.06000
C1118       C  0.88698873  0.60132515  0.01862123    -0.33400
C1119       C  0.89494491  0.60049298  0.05010575     0.35900
C1120       C  0.92886548  0.61847851  0.06383181    -0.06300
C1121       C  0.95399234  0.63717272  0.04521893    -0.33300
C1122       C  0.94593487  0.63807166  0.51373448     0.35800
H1123       H  0.86109150  0.58685965  0.50870435     0.16100
O1124       O  0.86891230  0.58236177  0.06710823    -0.60800
H1125       H  0.98008138  0.65142923  0.05504950     0.16100
O1126       O  0.97228226  0.65558661  0.49660176    -0.60900
H1127       H  0.96239103  0.68047410  0.49490103     0.43100
H1128       H  0.87920985  0.55759304  0.06857523     0.43100
C1129       C  0.93080775  0.61572892  0.31364840    -0.06000
C1130       C  0.89573614  0.63212976  0.30093434    -0.33400
C1131       C  0.88612931  0.63213517  0.26965910     0.35900
C1132       C  0.91184251  0.61566169  0.25021871    -0.06300
C1133       C  0.94673821  0.59901457  0.26285962    -0.33300
C1134       C  0.95632361  0.59887536  0.29418301     0.35800
H1135       H  0.87526366  0.64481670  0.31527830     0.16100
O1136       O  0.85169583  0.64877809  0.25841578    -0.60800
H1137       H  0.96740438  0.58684502  0.24836739     0.16100
O1138       O  0.99114247  0.58275779  0.30531693    -0.60900
H1139       H  0.98431981  0.55706414  0.30702452     0.43100
H1140       H  0.83120055  0.62955577  0.25607200     0.43100
C1141       C  0.03991839  0.57318872  0.16215021    -0.06000
C1142       C  0.04122707  0.54350181  0.18147452    -0.33400
C1143       C  0.06325050  0.51328154  0.17484698     0.35900
C1144       C  0.08260033  0.51180967  0.14764809    -0.06300
C1145       C  0.08602968  0.54334275  0.13076358    -0.33300
C1146       C  0.06491416  0.57408058  0.13799781     0.35800
H1147       H  0.02230191  0.54252583  0.20021848     0.16100
O1148       O  0.06077635  0.48349733  0.19272808    -0.60800
H1149       H  0.10057944  0.54285987  0.10976423     0.16100
O1150       O  0.06405617  0.60276744  0.11864494    -0.60900
H1151       H  0.08573690  0.61885665  0.12706947     0.43100
H1152       H  0.08747428  0.48146586  0.20402453     0.43100
C1153       C  0.92938074  0.76077981  0.11447646    -0.06000
C1154       C  0.94900820  0.76228746  0.08756726    -0.33400
C1155       C  0.97111721  0.79246721  0.08037965     0.35900
C1156       C  0.97229289  0.82247195  0.09932871    -0.06300
C1157       C  0.94752968  0.82318548  0.12349776    -0.33300
C1158       C  0.92631108  0.79242034  0.13134550     0.35800
H1159       H  0.95159338  0.73839901  0.07410750     0.16100
O1160       O  0.99525626  0.79079423  0.05686774    -0.60800
H1161       H  0.94837123  0.84608933  0.13843862     0.16100
O1162       O  0.90696685  0.79235798  0.15752529    -0.60900
H1163       H  0.92793818  0.78686461  0.17397911     0.43100
H1164       H  0.97677414  0.79239247  0.03826198     0.43100
C1165       C  0.01925630  0.76242109  0.28053233    -0.06000
C1166       C  0.03497841  0.76709953  0.25216363    -0.33400
C1167       C  0.01988693  0.74767993  0.22680968     0.35900
C1168       C  0.98894888  0.72273089  0.22965799    -0.06300
C1169       C  0.97328694  0.71802624  0.25803881    -0.33300
C1170       C  0.98820041  0.73758977  0.28332593     0.35800
H1171       H  0.05894497  0.78615335  0.24957140     0.16100
O1172       O  0.03492117  0.75393537  0.19933284    -0.60800
H1173       H  0.94936241  0.69892515  0.26068915     0.16100
O1174       O  0.97278375  0.73165078  0.31070799    -0.60900
H1175       H  0.98977897  0.71275871  0.32067961     0.43100
H1176       H  0.01725215  0.77237982  0.18935497     0.43100
C1177       C  0.08089824  0.72422474  0.39695398    -0.06000
C1178       C  0.08475507  0.69302748  0.37989805    -0.33400
C1179       C  0.06480885  0.66151276  0.38741500     0.35900
C1180       C  0.04077205  0.66124850  0.41215634    -0.06300
C1181       C  0.04197025  0.69064368  0.43162980    -0.33300
C1182       C  0.06246320  0.72179361  0.42452674     0.35800
H1183       H  0.09859147  0.69427436  0.35860685     0.16100
O1184       O  0.06376982  0.63324779  0.36773289    -0.60800
H1185       H  0.02359527  0.69076292  0.45070752     0.16100
O1186       O  0.05917729  0.75134196  0.44238419    -0.60900
H1187       H  0.08624075  0.75500126  0.45276517     0.43100
H1188       H  0.08153017  0.61501421  0.37790717     0.43100
C1189       C  0.96856682  0.91239154  0.34909342    -0.06000
C1190       C  0.94414812  0.91161622  0.37346743    -0.33400
C1191       C  0.92361837  0.94238781  0.38150813     0.35900
C1192       C  0.92729810  0.97420363  0.36477615    -0.06300
C1193       C  0.94639269  0.97280789  0.33761101    -0.33300
C1194       C  0.96793099  0.94262224  0.33025859     0.35800
H1195       H  0.94489256  0.88865664  0.38845805     0.16100
O1196       O  0.90544650  0.94249864  0.40818628    -0.60800
H1197       H  0.94918104  0.99677149  0.32413505     0.16100
O1198       O  0.99141139  0.94412725  0.30627047    -0.60900
H1199       H  0.01626205  0.95672697  0.31402914     0.43100
H1200       H  0.87781236  0.93374255  0.40279764     0.43100
C1201       C  0.09670202  0.86987871  0.26040801    -0.06000
C1202       C  0.11760126  0.84710985  0.24207772    -0.33400
C1203       C  0.11016957  0.84723638  0.21059485     0.35900
C1204       C  0.08117738  0.87037925  0.19663751    -0.06300
C1205       C  0.06032158  0.89323274  0.21490672    -0.33300
C1206       C  0.06795522  0.89327228  0.24640840     0.35800
H1207       H  0.13936730  0.82840443  0.25215096     0.16100
O1208       O  0.13057754  0.82373047  0.19387449    -0.60800
H1209       H  0.03810424  0.91149553  0.20477838     0.16100
O1210       O  0.04610215  0.91549609  0.26319928    -0.60900
H1211       H  0.06116769  0.93839682  0.26426134     0.43100
H1212       H  0.15646982  0.83569674  0.19083713     0.43100
C1213       C  0.09741112  0.86805541  0.01029995    -0.06000
C1214       C  0.11911769  0.88945273  0.99120810    -0.33400
C1215       C  0.11061006  0.88898338  0.45979230     0.35900
C1216       C  0.07959942  0.86690599  0.44667233    -0.06300
C1217       C  0.05800792  0.84541282  0.46574002    -0.33300
C1218       C  0.06646873  0.84600439  0.99715775     0.35800
H1219       H  0.14254758  0.90717316  0.00062325     0.16100
O1220       O  0.13243382  0.91080329  0.44229734    -0.60800
H1221       H  0.03431797  0.82794306  0.45634481     0.16100
O1222       O  0.04342468  0.82554632  0.01473789    -0.60900
H1223       H  0.02031210  0.84088928  0.51856776     0.43100
H1224       H  0.15752209  0.89760900  0.43973156     0.43100
C1225       C  0.71403571  0.62702862  0.37366790    -0.06000
C1226       C  0.74289914  0.65435739  0.37449740    -0.33400
C1227       C  0.78355388  0.64688023  0.38140468     0.35900
C1228       C  0.79614426  0.61150164  0.38808675    -0.06300
C1229       C  0.76725228  0.58423455  0.38731810    -0.33300
C1230       C  0.72665529  0.59169401  0.38040226     0.35800
H1231       H  0.73408876  0.68158477  0.36915612     0.16100
O1232       O  0.81065637  0.67447706  0.38136383    -0.60800
H1233       H  0.77601352  0.55699022  0.39262729     0.16100
O1234       O  0.69961274  0.56404677  0.38038132    -0.60900
H1235       H  0.68988704  0.56400741  0.40095393     0.43100
H1236       H  0.82036831  0.67444787  0.36076064     0.43100
C1237       C  0.21597430  0.87643521  0.11973033    -0.06000
C1238       C  0.23130049  0.84300477  0.11198754    -0.33400
C1239       C  0.27141208  0.83413230  0.11961478     0.35900
C1240       C  0.29697454  0.85861020  0.13574157    -0.06300
C1241       C  0.28189771  0.89234994  0.14274222    -0.33300
C1242       C  0.24194998  0.90132207  0.13493992     0.35800
H1243       H  0.21217091  0.82358494  0.09977833     0.16100
O1244       O  0.28514678  0.80151976  0.11114180    -0.60800
H1245       H  0.30096349  0.91187178  0.15488029     0.16100
O1246       O  0.22869896  0.93441152  0.14258890    -0.60900
H1247       H  0.21924188  0.93144126  0.16312809     0.43100
H1248       H  0.29611250  0.80570998  0.09126495     0.43100
C1249       C  0.52079012  0.72359600  0.28114896    -0.06000
C1250       C  0.53735756  0.71979209  0.25301984    -0.33400
C1251       C  0.52173535  0.73820940  0.22728619     0.35900
C1252       C  0.48887653  0.76091797  0.22929583    -0.06300
C1253       C  0.47240659  0.76486212  0.25746981    -0.33300
C1254       C  0.48820263  0.74660479  0.28325334     0.35800
H1255       H  0.56260076  0.70228770  0.25086919     0.16100
O1256       O  0.53851719  0.73342009  0.20032565    -0.60800
H1257       H  0.44722325  0.78244452  0.25963215     0.16100
O1258       O  0.47204740  0.75203005  0.31037718    -0.60900
H1259       H  0.48815379  0.77165343  0.32030652     0.43100
H1260       H  0.52455872  0.71234528  0.19087153     0.43100
C1261       C  0.71360441  0.60904931  0.12423587    -0.06000
C1262       C  0.74155567  0.58125529  0.12645773    -0.33400
C1263       C  0.78226425  0.58824367  0.13374051     0.35900
C1264       C  0.79586460  0.62367660  0.13898199    -0.06300
C1265       C  0.76787181  0.65142980  0.13695869    -0.33300
C1266       C  0.72714660  0.64442079  0.12985631     0.35800
H1267       H  0.73201832  0.55396587  0.12195480     0.16100
O1268       O  0.80859207  0.56026506  0.13460339    -0.60800
H1269       H  0.77744685  0.67875272  0.14123778     0.16100
O1270       O  0.70097173  0.67252403  0.12821792    -0.60900
H1271       H  0.69480748  0.67697833  0.14941018     0.43100
H1272       H  0.80722663  0.54935984  0.15493901     0.43100
C1273       C  0.58099519  0.61611449  0.19751879    -0.06000
C1274       C  0.56369076  0.59109047  0.21630926    -0.33400
C1275       C  0.57300365  0.59113791  0.24766315     0.35900
C1276       C  0.59948044  0.61707657  0.26108668    -0.06300
C1277       C  0.61718819  0.64181671  0.24221695    -0.33300
C1278       C  0.60841815  0.64137627  0.21080442     0.35800
H1279       H  0.54324942  0.57088956  0.20664863     0.16100
O1280       O  0.55527584  0.56606257  0.26489839    -0.60800
H1281       H  0.63732964  0.66227926  0.25182059     0.16100
O1282       O  0.62600022  0.66650359  0.19348185    -0.60900
H1283       H  0.65329846  0.65737564  0.19108177     0.43100
H1284       H  0.57468437  0.54616214  0.26718496     0.43100
C1285       C  0.59917870  0.61855320  0.01106475    -0.06000
C1286       C  0.61727847  0.59414942  0.99237979    -0.33400
C1287       C  0.60826753  0.59410065  0.46098659     0.35900
C1288       C  0.58069335  0.61888235  0.44743920    -0.06300
C1289       C  0.56306427  0.64364122  0.46601987    -0.33300
C1290       C  0.57225411  0.64382006  0.99741130     0.35800
H1291       H  0.63784551  0.57424681  0.00214364     0.16100
O1292       O  0.62654247  0.56950323  0.44388175    -0.60800
H1293       H  0.54244978  0.66345960  0.45616311     0.16100
O1294       O  0.55392487  0.66839219  0.01446291    -0.60900
H1295       H  0.57246995  0.68915935  0.01606177     0.43100
H1296       H  0.60849404  0.54838210  0.44298107     0.43100
C1297       C  0.47018781  0.66008560  0.09864350    -0.06000
C1298       C  0.44593568  0.65928014  0.12310178    -0.33400
C1299       C  0.42486091  0.68980274  0.13087183     0.35900
C1300       C  0.42778654  0.72142990  0.11376537    -0.06300
C1301       C  0.44656797  0.71990346  0.08644807    -0.33300
C1302       C  0.46860939  0.68989660  0.07931429     0.35800
H1303       H  0.44726817  0.63657096  0.13837409     0.16100
O1304       O  0.40701049  0.68996363  0.15768596    -0.60800
H1305       H  0.44867283  0.74368586  0.07263402     0.16100
O1306       O  0.49146027  0.69116546  0.05495483    -0.60900
H1307       H  0.51602122  0.70460389  0.06207566     0.43100
H1308       H  0.37810159  0.68603647  0.15192845     0.43100
C1309       C  0.54038845  0.90862155  0.16055346    -0.06000
C1310       C  0.54293169  0.93719771  0.18090640    -0.33400
C1311       C  0.56332856  0.96854049  0.17411320     0.35900
C1312       C  0.58069310  0.97190966  0.14614586    -0.06300
C1313       C  0.58276725  0.94150993  0.12781932    -0.33300
C1314       C  0.56263874  0.90993946  0.13486295     0.35800
H1315       H  0.52568495  0.93657574  0.20061125     0.16100
O1316       O  0.56128800  0.99732191  0.19301165    -0.60800
H1317       H  0.59545303  0.94354422  0.10610674     0.16100
O1318       O  0.55963821  0.88277006  0.11408886    -0.60900
H1319       H  0.58084882  0.86562287  0.12113932     0.43100
H1320       H  0.58905024  0.00109451  0.20206473     0.43100
C1321       C  0.29295741  0.87776107  0.38927562    -0.06000
C1322       C  0.26477630  0.90538046  0.38656783    -0.33400
C1323       C  0.22414903  0.89799130  0.37912871     0.35900
C1324       C  0.21103759  0.86240489  0.37384622    -0.06300
C1325       C  0.23910890  0.83482042  0.37709277    -0.33300
C1326       C  0.27961400  0.84216399  0.38454251     0.35800
H1327       H  0.27413604  0.93282921  0.39047821     0.16100
O1328       O  0.19767881  0.92587083  0.37686038    -0.60800
H1329       H  0.22985020  0.80735314  0.37316162     0.16100
O1330       O  0.30586162  0.81413618  0.38688521    -0.60900
H1331       H  0.31596687  0.81192361  0.36650785     0.43100
H1332       H  0.19009532  0.92989516  0.39778753     0.43100
C1333       C  0.48901198  0.97342256  0.47960809    -0.06000
C1334       C  0.46822457  0.97502020  0.00608445    -0.33400
C1335       C  0.48394785  0.99355063  0.03173460     0.35900
C1336       C  0.52123968  0.51082397  0.03136417    -0.06300
C1337       C  0.54227993  0.50867150  0.00501255    -0.33300
C1338       C  0.52670073  0.98993706  0.47948482     0.35800
H1339       H  0.43943323  0.96186184  0.00697680     0.16100
O1340       O  0.46308610  0.99371863  0.05716843    -0.60800
H1341       H  0.57111419  0.52170129  0.00399001     0.16100
O1342       O  0.54793052  0.98916230  0.45424913    -0.60900
H1343       H  0.56708407  0.46920710  0.45779512     0.43100
H1344       H  0.44361818  0.01348255  0.05396913     0.43100
C1345       C  0.42749579  0.51312886  0.36184917    -0.06000
C1346       C  0.44753470  0.51452516  0.33510302    -0.33400
C1347       C  0.46892926  0.54508466  0.32775235     0.35900
C1348       C  0.46984001  0.57493142  0.34688992    -0.06300
C1349       C  0.44421660  0.57578229  0.37047423    -0.33300
C1350       C  0.42304708  0.54498652  0.37811736     0.35800
H1351       H  0.45083046  0.99047799  0.32198383     0.16100
O1352       O  0.49259081  0.54403017  0.30390653    -0.60800
H1353       H  0.44451742  0.59874411  0.38532768     0.16100
O1354       O  0.40271864  0.54505852  0.40383092    -0.60900
H1355       H  0.42323632  0.54023089  0.42075755     0.43100
H1356       H  0.47619758  0.05496253  0.28669079     0.43100
C1357       C  0.57958522  0.76245684  0.39658368    -0.06000
C1358       C  0.55945152  0.76349096  0.42331593    -0.33400
C1359       C  0.53639234  0.79302700  0.42994209     0.35900
C1360       C  0.53541418  0.82314165  0.41096161    -0.06300
C1361       C  0.56078600  0.82449778  0.38719979    -0.33300
C1362       C  0.58250628  0.79421389  0.37965935     0.35800
H1363       H  0.55721266  0.73960217  0.43698604     0.16100
O1364       O  0.51247826  0.79109966  0.45363157    -0.60800
H1365       H  0.56013700  0.84753266  0.37229756     0.16100
O1366       O  0.60239572  0.79471812  0.35374362    -0.60900
H1367       H  0.58165815  0.78957723  0.33701826     0.43100
H1368       H  0.48811829  0.77791647  0.44568395     0.43100
C1369       C  0.41084438  0.86752300  0.24929026    -0.06000
C1370       C  0.39164362  0.84376917  0.26816370    -0.33400
C1371       C  0.39955780  0.84463948  0.29964322     0.35900
C1372       C  0.42692274  0.86985551  0.31305010    -0.06300
C1373       C  0.44601808  0.89368577  0.29422469    -0.33300
C1374       C  0.43815834  0.89279580  0.26274294     0.35800
H1375       H  0.37100464  0.82371418  0.25851331     0.16100
O1376       O  0.38045308  0.82050589  0.31696479    -0.60800
H1377       H  0.46687344  0.91355143  0.30392033     0.16100
O1378       O  0.45820728  0.91626977  0.24544303    -0.60900
H1379       H  0.44076276  0.93756772  0.24310865     0.43100
H1380       H  0.39828092  0.79941957  0.31868634     0.43100
C1381       C  0.41186559  0.86981649  0.49957545    -0.06000
C1382       C  0.38959645  0.89006130  0.01885096    -0.33400
C1383       C  0.39803184  0.88897555  0.05026686     0.35900
C1384       C  0.42948583  0.86739687  0.06313748    -0.06300
C1385       C  0.45203331  0.84751455  0.04382932    -0.33300
C1386       C  0.44371610  0.84879426  0.01243669     0.35800
H1387       H  0.36564367  0.90715922  0.50958588     0.16100
O1388       O  0.37562844  0.90962023  0.06801673    -0.60800
H1389       H  0.47625548  0.83066536  0.05302429     0.16100
O1390       O  0.46759860  0.82984908  0.49461511    -0.60900
H1391       H  0.48947370  0.84657635  0.99017570     0.43100
H1392       H  0.35153759  0.89503605  0.07135304     0.43100
O1393       O  0.45302334  0.95678030  0.87394048    -0.82300
C1394       C  0.40467436  0.87417173  0.96633500     0.97100
O1395       O  0.38280374  0.89976901  0.95584579    -0.71400
O1396       O  0.43229321  0.95160505  0.95161011    -0.75000
Al1397     Al  0.39380550  0.93263343  0.92375461     1.49000
C1398       C  0.46955008  0.95574580  0.95245925     0.92300
O1399       O  0.50721726  0.88103198  0.91381240    -0.81200
O1400       O  0.40939066  0.85915055  0.86331686    -0.74800
Al1401     Al  0.47432000  0.91741600  0.89511642     1.90100
O1402       O  0.46691884  0.83650677  0.90441813    -0.73900
O1403       O  0.35880010  0.86101666  0.90659327    -0.73700
O1404       O  0.42175856  0.85365240  0.94866699    -0.79400
O1405       O  0.34911354  0.91736786  0.89743112    -0.77600
O1406       O  0.42812403  0.90275492  0.90810224    -1.13700
O1407       O  0.39989978  0.97173138  0.89627022    -0.72900
C1408       C  0.42531790  0.97824505  0.87745930     0.97800
C1409       C  0.50162484  0.84822972  0.91055475     0.94200
Al1410     Al  0.41529724  0.85655203  0.90600543     1.55600
O1411       O  0.48932653  0.94512168  0.93094449    -0.77500
C1412       C  0.33571731  0.88592304  0.89787063     0.98400
C1413       C  0.43402131  0.87336308  0.84638130     0.93300
O1414       O  0.46402635  0.89173243  0.85735068    -0.82800
O1415       O  0.54307318  0.59473224  0.65327682    -0.82300
C1416       C  0.60493935  0.61421401  0.54449368     0.97100
O1417       O  0.58595206  0.63367499  0.56177791    -0.71400
O1418       O  0.53896347  0.64865169  0.60533672    -0.75000
Al1419     Al  0.59151665  0.63039645  0.60462632     1.49000
C1420       C  0.50467829  0.63579857  0.59927460     0.92300
O1421       O  0.52093990  0.53812798  0.58067347    -0.81200
O1422       O  0.60693930  0.51396380  0.61160021    -0.74800
Al1423     Al  0.53449827  0.56786609  0.61593321     1.90100
O1424       O  0.57652515  0.53784463  0.55732471    -0.73900
O1425       O  0.65780652  0.56956809  0.61410670    -0.73700
O1426       O  0.62726468  0.58926400  0.55556035    -0.79400
O1427       O  0.64841296  0.62628092  0.60530653    -0.77600
O1428       O  0.57974061  0.58398909  0.60238555    -1.13700
O1429       O  0.59691010  0.62799497  0.64718834    -0.72900
C1430       C  0.57290435  0.61326603  0.66421013     0.97800
C1431       C  0.54013302  0.53003328  0.55800896     0.94200
Al1432     Al  0.61441910  0.55507151  0.58624808     1.55600
O1433       O  0.50015346  0.60275705  0.59642159    -0.77500
C1434       C  0.67110287  0.60116878  0.61453602     0.98400
C1435       C  0.58361490  0.00764896  0.63198504     0.93300
O1436       O  0.55830139  0.53029133  0.63824111    -0.82800
O1437       O  0.46668861  0.84441678  0.60711355    -0.82300
C1438       C  0.40540019  0.86280306  0.71595241     0.97100
O1439       O  0.42484701  0.88211255  0.69864097    -0.71400
O1440       O  0.47160605  0.89723886  0.65485991    -0.75000
Al1441     Al  0.41886838  0.87914887  0.65592244     1.49000
C1442       C  0.50575231  0.88431087  0.66065185     0.92300
O1443       O  0.48802340  0.78647272  0.67924828    -0.81200
O1444       O  0.40233721  0.76261612  0.64923850    -0.74800
Al1445     Al  0.47477620  0.81680806  0.64419494     1.90100
O1446       O  0.43311341  0.78694082  0.70352836    -0.73900
O1447       O  0.35187749  0.81831948  0.64629052    -0.73700
O1448       O  0.38263032  0.83794719  0.70496813    -0.79400
O1449       O  0.36200868  0.87494507  0.65549240    -0.77600
O1450       O  0.43001788  0.83281412  0.65807313    -1.13700
O1451       O  0.41308830  0.87713618  0.61352335    -0.72900
C1452       C  0.43710647  0.86314412  0.59636615     0.97800
C1453       C  0.46935788  0.77912519  0.70244737     0.94200
Al1454     Al  0.39515135  0.80379979  0.67439891     1.57200
O1455       O  0.50984349  0.85127229  0.66385552    -0.77500
C1456       C  0.33906340  0.84997515  0.64589230     0.98400
C1457       C  0.42494118  0.75685221  0.62833864     0.93300
O1458       O  0.44974750  0.78002366  0.62160120    -0.82800
O1459       O  0.55912258  0.70359426  0.88859864    -0.82300
C1460       C  0.60515101  0.62162143  0.79444510     0.97100
O1461       O  0.62741212  0.64684927  0.80536572    -0.71400
O1462       O  0.57646495  0.69748668  0.80689844    -0.75000
Al1463     Al  0.61455423  0.68076542  0.83596561     1.49000
C1464       C  0.54018383  0.70512813  0.80789328     0.92300
O1465       O  0.50043434  0.63232518  0.84559638    -0.81200
O1466       O  0.59700592  0.60733249  0.89717914    -0.74800
Al1467     Al  0.53475550  0.66686555  0.86579416     1.90100
O1468       O  0.53871772  0.58647804  0.85504973    -0.73900
O1469       O  0.64848454  0.60979668  0.85527964    -0.73700
O1470       O  0.58613750  0.60197081  0.81179612    -0.79400
O1471       O  0.65836889  0.66659854  0.86373450    -0.77600
O1472       O  0.57995742  0.65133741  0.85221594    -1.13700
O1473       O  0.60671272  0.72173403  0.86138624    -0.72900
C1474       C  0.58361512  0.72712651  0.88207457     0.97800
C1475       C  0.50462806  0.59927251  0.84836809     0.94200
Al1476     Al  0.59158979  0.60508481  0.85456496     1.55600
O1477       O  0.52140672  0.69737249  0.83091414    -0.77500
C1478       C  0.67147216  0.63501776  0.86421084     0.98400
C1479       C  0.57271340  0.62149082  0.91407095     0.93300
O1480       O  0.54263366  0.63928507  0.90291281    -0.82800
O1481       O  0.04152908  0.84533115  0.90251201    -0.82300
C1482       C  0.10202049  0.86554944  0.79376260     0.97100
O1483       O  0.08300496  0.88508972  0.81101288    -0.71400
O1484       O  0.03704024  0.90016244  0.85538392    -0.75000
Al1485     Al  0.08920977  0.88181379  0.85383292     1.49000
C1486       C  0.00264685  0.88767075  0.84942216     0.92300
O1487       O  0.01851114  0.79050856  0.82915560    -0.81200
O1488       O  0.10665826  0.76601237  0.86188228    -0.74800
Al1489     Al  0.03223539  0.81925137  0.86479835     1.90100
O1490       O  0.07502244  0.78812725  0.80689727    -0.73900
O1491       O  0.15602622  0.82216463  0.86337279    -0.73700
O1492       O  0.12448550  0.84064718  0.80476497    -0.79400
O1493       O  0.14599862  0.87852591  0.85383195    -0.77600
O1494       O  0.07763367  0.83535684  0.85153256    -1.13700
O1495       O  0.09515160  0.87894553  0.89628568    -0.72900
C1496       C  0.07139387  0.86394702  0.91337438     0.97800
C1497       C  0.03823696  0.78149796  0.80704505     0.94200
Al1498     Al  0.11278061  0.80662390  0.83573812     1.55600
O1499       O  0.99786761  0.85473566  0.84603226    -0.77500
C1500       C  0.16887927  0.85389189  0.86362562     0.98400
C1501       C  0.08244815  0.75932338  0.88155607     0.93300
O1502       O  0.05534316  0.78091534  0.88625638    -0.82800
O1503       O  0.95185584  0.70277754  0.62342945    -0.82300
C1504       C  0.90565477  0.61959766  0.71694049     0.97100
O1505       O  0.88313214  0.64438261  0.70590328    -0.71400
O1506       O  0.93333835  0.69618026  0.70394832    -0.75000
Al1507     Al  0.89539388  0.67838043  0.67511228     1.49000
C1508       C  0.96984843  0.70355019  0.70326349     0.92300
O1509       O  0.00968686  0.63036224  0.66539040    -0.81200
O1510       O  0.91250697  0.60584141  0.61419300    -0.74800
Al1511     Al  0.97551972  0.66531585  0.64571124     1.90100
O1512       O  0.97102792  0.58462876  0.65552036    -0.73900
O1513       O  0.86160940  0.60683056  0.65682744    -0.73700
O1514       O  0.92465781  0.59992520  0.69974991    -0.79400
O1515       O  0.85180524  0.66336976  0.64760685    -0.77600
O1516       O  0.93017188  0.64941430  0.65912362    -1.13700
O1517       O  0.90241438  0.71915261  0.64927471    -0.72900
C1518       C  0.92620508  0.72536455  0.62918384     0.97800
C1519       C  0.00531094  0.59739192  0.66184223     0.94200
Al1520     Al  0.91847501  0.60303454  0.65685239     1.55600
O1521       O  0.98911495  0.69511164  0.68076892    -0.77500
C1522       C  0.83857581  0.63175877  0.64779135     0.98400
C1523       C  0.93673441  0.62055554  0.59727705     0.93300
O1524       O  0.96697929  0.63837620  0.60846745    -0.82800
O1525       O  0.05703294  0.95537145  0.63565558    -0.82300
C1526       C  0.10410087  0.87248528  0.54359537     0.97100
O1527       O  0.12632510  0.89806716  0.55404146    -0.71400
O1528       O  0.07792011  0.95047599  0.55762182    -0.75000
Al1529     Al  0.11575051  0.93130602  0.58580727     1.49000
C1530       C  0.04092620  0.95564650  0.55730975     0.92300
O1531       O  0.00143229  0.88037302  0.59526360    -0.81200
O1532       O  0.09898661  0.85876750  0.64664820    -0.74800
Al1533     Al  0.03487543  0.91655749  0.61427870     1.90100
O1534       O  0.04085588  0.83585793  0.60610206    -0.73900
O1535       O  0.14973032  0.85947060  0.60318298    -0.73700
O1536       O  0.08631092  0.85219490  0.56131340    -0.79400
O1537       O  0.15979399  0.91577853  0.61252868    -0.77600
O1538       O  0.08082948  0.90169315  0.60146453    -1.13700
O1539       O  0.10997453  0.97085905  0.61297967    -0.72900
C1540       C  0.08475673  0.97705763  0.63198611     0.97800
C1541       C  0.00637718  0.84761007  0.59948243     0.94200
Al1542     Al  0.09292147  0.85547767  0.60403170     1.55600
O1543       O  0.02096759  0.94500333  0.57880738    -0.77500
C1544       C  0.17311122  0.88446819  0.61170245     0.98400
C1545       C  0.07418998  0.87293740  0.66327281     0.93300
O1546       O  0.04403759  0.89053703  0.65191352    -0.82800
O1547       O  0.96809196  0.59635143  0.85874693    -0.82300
C1548       C  0.90607135  0.61580938  0.96667645     0.97100
O1549       O  0.92503425  0.63537927  0.94915669    -0.71400
O1550       O  0.97200675  0.64976288  0.90505197    -0.75000
Al1551     Al  0.91913585  0.63174519  0.90624461     1.49000
C1552       C  0.00603155  0.63696169  0.91178650     0.92300
O1553       O  0.98818985  0.53943698  0.93071812    -0.81200
O1554       O  0.90169114  0.51562631  0.90002700    -0.74800
Al1555     Al  0.97533943  0.56930270  0.89585353     1.90100
O1556       O  0.93300445  0.53921322  0.95453597    -0.73900
O1557       O  0.85133745  0.57143262  0.89784370    -0.73700
O1558       O  0.88313213  0.59098644  0.95591832    -0.79400
O1559       O  0.86217549  0.62811656  0.90593421    -0.77600
O1560       O  0.93015271  0.58542079  0.90909778    -1.13700
O1561       O  0.91358820  0.62849507  0.86354927    -0.72900
C1562       C  0.93818507  0.61383738  0.84707582     0.97800
C1563       C  0.96932246  0.53153375  0.95356714     0.94200
Al1564     Al  0.89503794  0.55666417  0.92548906     1.55600
O1565       O  0.00995877  0.60400860  0.91569044    -0.77500
C1566       C  0.83870299  0.60316191  0.89728938     0.98400
C1567       C  0.92497435  0.50951830  0.87961495     0.93300
O1568       O  0.95072776  0.53218009  0.87349751    -0.82800
C1569       C  0.98895634  0.51276831  0.97998610    -0.06000
C1570       C  0.97142043  0.01443209  0.00785013    -0.33400
C1571       C  0.98745276  0.99550578  0.53312357     0.35900
C1572       C  0.02175384  0.97463976  0.53091429    -0.06300
C1573       C  0.03966009  0.97332370  0.50319997    -0.33300
C1574       C  0.02349855  0.49208523  0.47784817     0.35800
H1575       H  0.94515195  0.03065885  0.01018021     0.16100
O1576       O  0.97050173  0.99898041  0.56015748    -0.60800
H1577       H  0.06622580  0.45742320  0.50106644     0.16100
O1578       O  0.04149721  0.48969328  0.95115570    -0.60900
H1579       H  0.02925901  0.46842336  0.44075165     0.43100
H1580       H  0.94843776  0.98114652  0.05939634     0.43100
C1581       C  0.91227794  0.61982901  0.00003302    -0.06000
C1582       C  0.88699115  0.60132094  0.51862121    -0.33400
C1583       C  0.89494742  0.60048912  0.55010573     0.35900
C1584       C  0.92886615  0.61847728  0.56383181    -0.06300
C1585       C  0.95399142  0.63717333  0.54521891    -0.33300
C1586       C  0.94593586  0.63807138  0.01373449     0.35800
H1587       H  0.86108769  0.58686580  0.00870435     0.16100
O1588       O  0.86891679  0.58235538  0.56710821    -0.60800
H1589       H  0.98007908  0.65143178  0.55504948     0.16100
O1590       O  0.97228496  0.65558404  0.99660172    -0.60900
H1591       H  0.96239610  0.68047220  0.99490082     0.43100
H1592       H  0.87921794  0.55758827  0.56857631     0.43100
C1593       C  0.93080707  0.61572897  0.81364844    -0.06000
C1594       C  0.89573576  0.63213024  0.80093436    -0.33400
C1595       C  0.88612923  0.63213608  0.76965908     0.35900
C1596       C  0.91184234  0.61566242  0.75021869    -0.06300
C1597       C  0.94673775  0.59901488  0.76285964    -0.33300
C1598       C  0.95632291  0.59887538  0.79418306     0.35800
H1599       H  0.87526335  0.64481730  0.81527832     0.16100
O1600       O  0.85169609  0.64877952  0.75841574    -0.60800
H1601       H  0.96740382  0.58684512  0.74836742     0.16100
O1602       O  0.99114139  0.58275723  0.80531707    -0.60900
H1603       H  0.98431834  0.55706402  0.80702443     0.43100
H1604       H  0.83120054  0.62955747  0.75607176     0.43100
C1605       C  0.03991813  0.57318876  0.66215047    -0.06000
C1606       C  0.04122623  0.54350171  0.68147460    -0.33400
C1607       C  0.06324915  0.51328121  0.67484696     0.35900
C1608       C  0.08259928  0.51180933  0.64764823    -0.06300
C1609       C  0.08602939  0.54334254  0.63076401    -0.33300
C1610       C  0.06491424  0.57408056  0.63799829     0.35800
H1611       H  0.02230083  0.54252586  0.70021838     0.16100
O1612       O  0.06077427  0.48349690  0.69272785    -0.60800
H1613       H  0.10057943  0.54285966  0.60976477     0.16100
O1614       O  0.06405684  0.60276754  0.61864559    -0.60900
H1615       H  0.08573772  0.61885656  0.62707038     0.43100
H1616       H  0.08747210  0.48146485  0.70402429     0.43100
C1617       C  0.92937963  0.76077953  0.61447528    -0.06000
C1618       C  0.94900798  0.76228692  0.58756649    -0.33400
C1619       C  0.97111710  0.79246668  0.58037908     0.35900
C1620       C  0.97229189  0.82247171  0.59932784    -0.06300
C1621       C  0.94752760  0.82318548  0.62349622    -0.33300
C1622       C  0.92630888  0.79242034  0.63134379     0.35800
H1623       H  0.95159385  0.73839828  0.57410707     0.16100
O1624       O  0.99525714  0.79079350  0.55686778    -0.60800
H1625       H  0.94836839  0.84608954  0.63843685     0.16100
O1626       O  0.90696356  0.79235826  0.65752306    -0.60900
H1627       H  0.92793447  0.78686543  0.67397740     0.43100
H1628       H  0.97677555  0.79238971  0.53826161     0.43100
C1629       C  0.01925664  0.76242056  0.78053276    -0.06000
C1630       C  0.03498099  0.76709682  0.75216463    -0.33400
C1631       C  0.01988917  0.74767766  0.72681052     0.35900
C1632       C  0.98894829  0.72273127  0.72965801    -0.06300
C1633       C  0.97328417  0.71802866  0.75803829    -0.33300
C1634       C  0.98819810  0.73759172  0.78332561     0.35800
H1635       H  0.05894966  0.78614860  0.74957289     0.16100
O1636       O  0.03492611  0.75393093  0.69933432    -0.60800
H1637       H  0.94935763  0.69892948  0.76068814     0.16100
O1638       O  0.97277920  0.73165462  0.81070709    -0.60900
H1639       H  0.98977281  0.71276210  0.82067988     0.43100
H1640       H  0.01725938  0.77237614  0.68935528     0.43100
C1641       C  0.08089870  0.72422457  0.89695472    -0.06000
C1642       C  0.08475562  0.69302733  0.87989875    -0.33400
C1643       C  0.06480889  0.66151276  0.88741537     0.35900
C1644       C  0.04077154  0.66124862  0.91215640    -0.06300
C1645       C  0.04196969  0.69064368  0.93162997    -0.33300
C1646       C  0.06246315  0.72179344  0.92452727     0.35800
H1647       H  0.09859244  0.69427419  0.85860771     0.16100
O1648       O  0.06376988  0.63324786  0.86773316    -0.60800
H1649       H  0.02359434  0.69076295  0.95070747     0.16100
O1650       O  0.05917717  0.75134177  0.94238479    -0.60900
H1651       H  0.08624006  0.75500025  0.95276660     0.43100
H1652       H  0.08152863  0.61501368  0.87790790     0.43100
C1653       C  0.96856724  0.91239145  0.84909433    -0.06000
C1654       C  0.94414805  0.91161582  0.87346807    -0.33400
C1655       C  0.92361809  0.94238734  0.88150876     0.35900
C1656       C  0.92729789  0.97420331  0.86477698    -0.06300
C1657       C  0.94639287  0.97280779  0.83761201    -0.33300
C1658       C  0.96793160  0.94262235  0.83025970     0.35800
H1659       H  0.94489217  0.88865607  0.88845848     0.16100
O1660       O  0.90544559  0.94249788  0.90818663    -0.60800
H1661       H  0.94918132  0.99677150  0.82413618     0.16100
O1662       O  0.99141264  0.94412778  0.80627201    -0.60900
H1663       H  0.01626333  0.95672788  0.81403131     0.43100
H1664       H  0.87781076  0.93374387  0.90279717     0.43100
C1665       C  0.09670150  0.86987793  0.76040796    -0.06000
C1666       C  0.11759935  0.84710804  0.74207759    -0.33400
C1667       C  0.11016747  0.84723474  0.71059472     0.35900
C1668       C  0.08117652  0.87037881  0.69663743    -0.06300
C1669       C  0.06032217  0.89323337  0.71490669    -0.33300
C1670       C  0.06795601  0.89327279  0.74640838     0.35800
H1671       H  0.13936435  0.82840165  0.75215077     0.16100
O1672       O  0.13057373  0.82372761  0.69387429    -0.60800
H1673       H  0.03810579  0.91149704  0.70477835     0.16100
O1674       O  0.04610431  0.91549774  0.76319930    -0.60900
H1675       H  0.06117123  0.93839778  0.76426140     0.43100
H1676       H  0.15646682  0.83569229  0.69083701     0.43100
C1677       C  0.09741022  0.86805464  0.51029979    -0.06000
C1678       C  0.11911813  0.88945073  0.49120796    -0.33400
C1679       C  0.11060950  0.88898524  0.95979244     0.35900
C1680       C  0.07960027  0.86690628  0.94667252    -0.06300
C1681       C  0.05801003  0.84541202  0.96574023    -0.33300
C1682       C  0.06646667  0.84600490  0.49715756     0.35800
H1683       H  0.14254915  0.90717001  0.50062309     0.16100
O1684       O  0.13243139  0.91080673  0.94229743    -0.60800
H1685       H  0.03432102  0.82794126  0.95634507     0.16100
O1686       O  0.04342166  0.82554774  0.51473768    -0.60900
H1687       H  0.02031422  0.84088693  0.01856770     0.43100
H1688       H  0.15752124  0.89761444  0.93973211     0.43100
C1689       C  0.71403519  0.62702883  0.87366789    -0.06000
C1690       C  0.74289857  0.65435765  0.87449808    -0.33400
C1691       C  0.78355325  0.64688050  0.88140558     0.35900
C1692       C  0.79614367  0.61150184  0.88808723    -0.06300
C1693       C  0.76725173  0.58423469  0.88731794    -0.33300
C1694       C  0.72665476  0.59169415  0.88040189     0.35800
H1695       H  0.73408818  0.68158512  0.86915716     0.16100
O1696       O  0.81065565  0.67447745  0.88136538    -0.60800
H1697       H  0.77601297  0.55699028  0.89262672     0.16100
O1698       O  0.69961228  0.56404678  0.88038019    -0.60900
H1699       H  0.68988589  0.56400705  0.90095261     0.43100
H1700       H  0.82036770  0.67444886  0.86076233     0.43100
C1701       C  0.21597362  0.87643574  0.61973009    -0.06000
C1702       C  0.23130072  0.84300624  0.61198577    -0.33400
C1703       C  0.27141239  0.83413406  0.61961302     0.35900
C1704       C  0.29697397  0.85861123  0.63574149    -0.06300
C1705       C  0.28189625  0.89235014  0.64274367    -0.33300
C1706       C  0.24194844  0.90132204  0.63494128     0.35800
H1707       H  0.21217176  0.82358695  0.59977531     0.16100
O1708       O  0.28514801  0.80152252  0.61113842    -0.60800
H1709       H  0.30096135  0.91187138  0.65488309     0.16100
O1710       O  0.22869642  0.93441050  0.64259200    -0.60900
H1711       H  0.21923760  0.93143793  0.66313067     0.43100
H1712       H  0.29611528  0.80571477  0.59126239     0.43100
C1713       C  0.52078951  0.72359656  0.78114892    -0.06000
C1714       C  0.53735739  0.71979321  0.75301991    -0.33400
C1715       C  0.52173522  0.73821059  0.72728625     0.35900
C1716       C  0.48887579  0.76091852  0.72929574    -0.06300
C1717       C  0.47240534  0.76486203  0.75746960    -0.33300
C1718       C  0.48820149  0.74660479  0.78325316     0.35800
H1719       H  0.56260100  0.70228927  0.75086934     0.16100
O1720       O  0.53851778  0.73342201  0.70032588    -0.60800
H1721       H  0.44722154  0.78244397  0.75963184     0.16100
O1722       O  0.47204589  0.75202963  0.81037692    -0.60900
H1723       H  0.48815149  0.77165331  0.82030624     0.43100
H1724       H  0.52456016  0.71234712  0.69087145     0.43100
C1725       C  0.71360394  0.60904931  0.62423610    -0.06000
C1726       C  0.74155530  0.58125529  0.62645700    -0.33400
C1727       C  0.78226397  0.58824359  0.63373963     0.35900
C1728       C  0.79586423  0.62367638  0.63898193    -0.06300
C1729       C  0.76787135  0.65142952  0.63695960    -0.33300
C1730       C  0.72714612  0.64442062  0.62985735     0.35800
H1731       H  0.73201793  0.55396601  0.62195333     0.16100
O1732       O  0.80859203  0.56026517  0.63460135    -0.60800
H1733       H  0.77744638  0.67875231  0.64123930     0.16100
O1734       O  0.70097124  0.67252386  0.62821974    -0.60900
H1735       H  0.69480742  0.67697765  0.64941208     0.43100
H1736       H  0.80722651  0.54935862  0.65493635     0.43100
C1737       C  0.58099376  0.61611511  0.69751869    -0.06000
C1738       C  0.56369018  0.59109054  0.71630916    -0.33400
C1739       C  0.57300324  0.59113805  0.74766305     0.35900
C1740       C  0.59947923  0.61707737  0.76108652    -0.06300
C1741       C  0.61718601  0.64181811  0.74221680    -0.33300
C1742       C  0.60841582  0.64137763  0.71080432     0.35800
H1743       H  0.54324959  0.57088907  0.70664851     0.16100
O1744       O  0.55527671  0.56606193  0.76489830    -0.60800
H1745       H  0.63732684  0.66228116  0.75182041     0.16100
O1746       O  0.62599691  0.66650554  0.69348178    -0.60900
H1747       H  0.65329581  0.65737853  0.69108196     0.43100
H1748       H  0.57468610  0.54616194  0.76718444     0.43100
C1749       C  0.59917873  0.61855321  0.51106479    -0.06000
C1750       C  0.61727759  0.59414864  0.49237999    -0.33400
C1751       C  0.60826843  0.59410156  0.96098639     0.35900
C1752       C  0.58069344  0.61888268  0.94743914    -0.06300
C1753       C  0.56306342  0.64364076  0.96602001    -0.33300
C1754       C  0.57225507  0.64382074  0.49741117     0.35800
H1755       H  0.63784389  0.57424552  0.50214395     0.16100
O1756       O  0.62654426  0.56950490  0.94388136    -0.60800
H1757       H  0.54244820  0.66345864  0.95616339     0.16100
O1758       O  0.55392694  0.66839381  0.51446255    -0.60900
H1759       H  0.57247345  0.68916015  0.51606174     0.43100
H1760       H  0.60849783  0.54838247  0.94298207     0.43100
C1761       C  0.47018751  0.66008664  0.59864279    -0.06000
C1762       C  0.44593441  0.65928103  0.62310051    -0.33400
C1763       C  0.42485985  0.68980380  0.63087058     0.35900
C1764       C  0.42778665  0.72143126  0.61376467    -0.06300
C1765       C  0.44656912  0.71990506  0.58644781    -0.33300
C1766       C  0.46861034  0.68989804  0.57931405     0.35800
H1767       H  0.44726602  0.63657157  0.63837252     0.16100
O1768       O  0.40700863  0.68996448  0.65768434    -0.60800
H1769       H  0.44867498  0.74368767  0.57263419     0.16100
O1770       O  0.49146234  0.69116716  0.55495524    -0.60900
H1771       H  0.51602358  0.70460497  0.56207702     0.43100
H1772       H  0.37809952  0.68603782  0.65192622     0.43100
C1773       C  0.54038782  0.90862262  0.66055377    -0.06000
C1774       C  0.54293125  0.93719881  0.68090666    -0.33400
C1775       C  0.56332814  0.96854153  0.67411332     0.35900
C1776       C  0.58069239  0.97191058  0.64614585    -0.06300
C1777       C  0.58276629  0.94151086  0.62781931    -0.33300
C1778       C  0.56263779  0.90994048  0.63486310     0.35800
H1779       H  0.52568474  0.93657690  0.70061162     0.16100
O1780       O  0.56128797  0.99732288  0.69301186    -0.60800
H1781       H  0.59545180  0.94354510  0.60610661     0.16100
O1782       O  0.55963684  0.88277110  0.61408901    -0.60900
H1783       H  0.58084855  0.86562480  0.62113844     0.43100
H1784       H  0.58905079  0.00109581  0.70206435     0.43100
C1785       C  0.29295777  0.87776137  0.88927538    -0.06000
C1786       C  0.26477687  0.90538091  0.88656652    -0.33400
C1787       C  0.22414964  0.89799176  0.87912724     0.35900
C1788       C  0.21103803  0.86240522  0.87384563    -0.06300
C1789       C  0.23910912  0.83482068  0.87709321    -0.33300
C1790       C  0.27961415  0.84216420  0.88454316     0.35800
H1791       H  0.27413681  0.93282975  0.89047617     0.16100
O1792       O  0.19767959  0.92587141  0.87685793    -0.60800
H1793       H  0.22985025  0.80735331  0.87316279     0.16100
O1794       O  0.30586151  0.81413620  0.88688698    -0.60900
H1795       H  0.31596669  0.81192238  0.86650982     0.43100
H1796       H  0.19009339  0.92989471  0.89778438     0.43100
C1797       C  0.48901233  0.97342216  0.97960841    -0.06000
C1798       C  0.46822358  0.97502174  0.50608378    -0.33400
C1799       C  0.48394679  0.99355229  0.53173389     0.35900
C1800       C  0.52123930  0.51082447  0.53136391    -0.06300
C1801       C  0.54228051  0.50867047  0.50501283    -0.33300
C1802       C  0.52670051  0.98993768  0.97948477     0.35800
H1803       H  0.43943176  0.96186424  0.50697589     0.16100
O1804       O  0.46308416  0.99372161  0.55716727    -0.60800
H1805       H  0.57111550  0.52169905  0.50399074     0.16100
O1806       O  0.54792969  0.98916378  0.95424874    -0.60900
H1807       H  0.56708188  0.46920880  0.95779296     0.43100
H1808       H  0.44361736  0.01348629  0.55396747     0.43100
C1809       C  0.42749542  0.51312908  0.86184943    -0.06000
C1810       C  0.44753461  0.51452527  0.83510341    -0.33400
C1811       C  0.46892947  0.54508462  0.82775286     0.35900
C1812       C  0.46983987  0.57493151  0.84689026    -0.06300
C1813       C  0.44421606  0.57578254  0.87047431    -0.33300
C1814       C  0.42304651  0.54498680  0.87811748     0.35800
H1815       H  0.45083193  0.99047783  0.82198456     0.16100
O1816       O  0.49259160  0.54402981  0.80390740    -0.60800
H1817       H  0.44451653  0.59874447  0.88532762     0.16100
O1818       O  0.40271774  0.54505902  0.90383085    -0.60900
H1819       H  0.42323535  0.54023146  0.92075778     0.43100
H1820       H  0.47619982  0.05496158  0.78669151     0.43100
C1821       C  0.57958530  0.76245734  0.89658362    -0.06000
C1822       C  0.55945222  0.76349158  0.92331613    -0.33400
C1823       C  0.53639320  0.79302766  0.92994242     0.35900
C1824       C  0.53541444  0.82314210  0.91096173    -0.06300
C1825       C  0.56078573  0.82449811  0.88719959    -0.33300
C1826       C  0.58250591  0.79421423  0.87965907     0.35800
H1827       H  0.55721372  0.73960285  0.93698635     0.16100
O1828       O  0.51247973  0.79110048  0.95363228    -0.60800
H1829       H  0.56013623  0.84753280  0.87229715     0.16100
O1830       O  0.60239450  0.79471821  0.85374294    -0.60900
H1831       H  0.58165644  0.78957704  0.83701797     0.43100
H1832       H  0.48811977  0.77791753  0.94568508     0.43100
C1833       C  0.41084393  0.86752349  0.74929038    -0.06000
C1834       C  0.39164414  0.84376899  0.76816383    -0.33400
C1835       C  0.39955870  0.84463911  0.79964332     0.35900
C1836       C  0.42692281  0.86985581  0.81305019    -0.06300
C1837       C  0.44601703  0.89368690  0.79422478    -0.33300
C1838       C  0.43815710  0.89279695  0.76274303     0.35800
H1839       H  0.37100574  0.82371357  0.75851345     0.16100
O1840       O  0.38045516  0.82050466  0.81696486    -0.60800
H1841       H  0.46687163  0.91355315  0.80392046     0.16100
O1842       O  0.45820493  0.91627171  0.74544307    -0.60900
H1843       H  0.44075892  0.93756863  0.74310799     0.43100
H1844       H  0.39828399  0.79941884  0.81868618     0.43100
C1845       C  0.41186570  0.86981602  0.99957540    -0.06000
C1846       C  0.38959601  0.89006160  0.51885094    -0.33400
C1847       C  0.39803134  0.88897602  0.55026687     0.35900
C1848       C  0.42948561  0.86739774  0.56313759    -0.06300
C1849       C  0.45203342  0.84751559  0.54382952    -0.33300
C1850       C  0.44371618  0.84879503  0.51243687     0.35800
H1851       H  0.36564437  0.90715926  0.00958596     0.16100
O1852       O  0.37562746  0.90962036  0.56801667    -0.60800
H1853       H  0.47625575  0.83066662  0.55302459     0.16100
O1854       O  0.46759855  0.82984851  0.99461484    -0.60900
H1855       H  0.48947336  0.84657676  0.49017555     0.43100
H1856       H  0.35153687  0.89503597  0.57135279     0.43100
loop_ 
_geom_bond_atom_site_label_1 
_geom_bond_atom_site_label_2 
_geom_bond_distance 
_geom_bond_site_symmetry_2 
_ccdc_geom_bond_type 
O1           C16   1.251       .  A
O1           Al9   1.860       .  S
C2           O12   1.269       .  A
C2            O3   1.274       .  A
C2          C453   1.481       .  S
O3           Al5   1.933       .  S
O4            C6   1.254       .  A
O4           Al5   1.852       .  S
Al5          O13   1.908       .  S
Al5          O15   1.921       .  S
Al5          O14   1.789       .  S
C6           O19   1.269       .  A
C6          C405   1.478       .  S
O7           C17   1.249       .  A
O7           Al9   1.903       .  S
O8           C21   1.271       .  A
O8          Al18   1.887       .  S
Al9          O22   1.938       .  S
Al9          O19   1.930       .  S
Al9          O14   1.776       .  S
O10          C17   1.250       .  A
O10         Al18   1.895       .  S
O11          C20   1.255       .  A
O11         Al18   1.903       .  S
O12         Al18   1.887       .  S
O13          C20   1.259       .  A
O14         Al18   1.782       .  S
O15          C16   1.260       .  A
C16        C1345   1.480       .  S
C17         C432   1.474       .  S
C20         C393   1.483       .  S
C21          O22   1.279       .  A
C21         C444   1.482       .  S
O23          C38   1.277       .  A
O23         Al31   1.939       .  S
C24          O34   1.273       .  A
C24          O25   1.268       .  A
C24         C357   1.486       .  S
O25         Al27   1.895       .  S
O26          C28   1.252       .  A
O26         Al27   1.894       .  S
Al27         O35   1.910       .  S
Al27         O37   1.881       .  S
Al27         O36   1.782       .  S
C28          O41   1.252       .  A
C28         C369   1.473       .  S
O29          C39   1.272       .  A
O29         Al31   1.943       .  S
O30         C971   1.261       .  A
O30         Al40   1.930       .  S
Al31         O44   1.863       .  S
Al31         O41   1.905       .  S
Al31         O36   1.775       .  S
O32          C39   1.254       .  A
O32         Al40   1.845       .  S
O33          C42   1.262       .  A
O33         Al40   1.907       .  S
O34         Al40   1.936       .  S
O35          C42   1.259       .  A
O36         Al40   1.784       .  S
O37          C38   1.268       .  A
C38         C345   1.482       .  S
C39         C408   1.480       .  S
C42         C333   1.482       .  S
C43         O958   1.261       .  A
C43         O972   1.250       .  A
C43         C384   1.482       .  S
O44         C971   1.250       .  A
O45          C60   1.277       .  A
O45         Al53   1.939       .  S
C46          O56   1.273       .  A
C46          O47   1.267       .  A
C46         C441   1.484       .  S
O47         Al49   1.890       .  S
O48          C50   1.252       .  A
O48         Al49   1.892       .  S
Al49         O57   1.908       .  S
Al49         O59   1.873       .  S
Al49         O58   1.778       .  S
C50          O63   1.252       .  A
C50         C381   1.471       .  S
O51          C61   1.273       .  A
O51         Al53   1.945       .  S
O52          C65   1.261       .  A
O52         Al62   1.933       .  S
Al53         O66   1.861       .  S
Al53         O63   1.905       .  S
Al53         O58   1.773       .  S
O54          C61   1.255       .  A
O54         Al62   1.850       .  S
O55          C64   1.263       .  A
O55         Al62   1.914       .  S
O56         Al62   1.937       .  S
O57          C64   1.260       .  A
O58         Al62   1.784       .  S
O59          C60   1.266       .  A
C60         C456   1.481       .  S
C61         C324   1.477       .  S
C64         C312   1.482       .  S
C65          O66   1.250       .  A
C65         C372   1.484       .  S
O67          C82   1.249       .  A
O67         Al75   1.855       .  S
C68          O78   1.267       .  A
C68          O69   1.273       .  A
C68         C348   1.484       .  S
O69         Al71   1.935       .  S
O70          C72   1.254       .  A
O70         Al71   1.849       .  S
Al71         O79   1.914       .  S
Al71         O81   1.937       .  S
Al71         O80   1.785       .  S
C72          O85   1.271       .  A
C72         C321   1.477       .  S
O73          C83   1.251       .  A
O73         Al75   1.903       .  S
O74          C87   1.267       .  A
O74         Al84   1.883       .  S
Al75         O88   1.939       .  S
Al75         O85   1.943       .  S
Al75         O80   1.774       .  S
O76          C83   1.254       .  A
O76         Al84   1.901       .  S
O77          C86   1.260       .  A
O77         Al84   1.910       .  S
O78         Al84   1.892       .  S
O79          C86   1.264       .  A
O80         Al84   1.779       .  S
O81          C82   1.262       .  A
C82         C429   1.484       .  S
C83         C420   1.473       .  S
C86         C297   1.485       .  S
C87          O88   1.277       .  A
C87         C360   1.483       .  S
O89         C104   1.279       .  A
O89         Al97   1.940       .  S
C90         O100   1.273       .  A
C90          O91   1.269       .  A
C90         C273   1.482       .  S
O91         Al93   1.894       .  S
O92          C94   1.250       .  A
O92         Al93   1.888       .  S
Al93        O101   1.906       .  S
Al93        O103   1.877       .  S
Al93        O102   1.782       .  S
C94         O107   1.251   1_455  A
C94         C261   1.473   1_455  S
O95         C105   1.271       .  A
O95         Al97   1.937       .  S
O96         C109   1.260       .  A
O96        Al106   1.929       .  S
Al97        O110   1.858       .  S
Al97        O107   1.908   1_455  S
Al97        O102   1.775       .  S
O98         C105   1.256       .  A
O98        Al106   1.857       .  S
O99         C108   1.261       .  A
O99        Al106   1.910       .  S
O100       Al106   1.931       .  S
O101        C108   1.257       .  A
O102       Al106   1.784       .  S
O103        C104   1.268       .  A
C104        C288   1.482       .  S
C105        C237   1.474       .  S
C108        C396   1.481       .  S
C109        O110   1.249       .  A
C109        C249   1.482       .  S
O111        C126   1.250       .  A
O111       Al119   1.858       .  S
C112        O122   1.270       .  A
C112        O113   1.271       .  A
C112        C204   1.478       .  S
O113       Al115   1.929       .  S
O114        C116   1.255       .  A
O114       Al115   1.851       .  S
Al115       O123   1.908       .  S
Al115       O125   1.930       .  S
Al115       O124   1.785       .  S
C116        O129   1.271       .  A
C116        C240   1.474       .  S
O117        C127   1.252       .  A
O117       Al119   1.906   1_455  S
O118        C131   1.270       .  A
O118       Al128   1.886       .  S
Al119       O132   1.937       .  S
Al119       O129   1.938       .  S
Al119       O124   1.773       .  S
O120        C127   1.252   1_655  A
O120       Al128   1.899       .  S
O121        C130   1.259       .  A
O121       Al128   1.910       .  S
O122       Al128   1.897       .  S
O123        C130   1.262       .  A
O124       Al128   1.780       .  S
O125        C126   1.261       .  A
C126        C225   1.483       .  S
C127        C213   1.475       .  S
C130        C336   1.482       .  S
C131        O132   1.277       .  A
C131        C192   1.485       .  S
O133        C148   1.250       .  A
O133       Al141   1.856       .  S
C134        O144   1.270       .  A
C134        O135   1.275       .  A
C134        C285   1.483       .  S
O135       Al137   1.936       .  S
O136        C138   1.254       .  A
O136       Al137   1.852       .  S
Al137       O145   1.908       .  S
Al137       O147   1.932       .  S
Al137       O146   1.785       .  S
C138        O151   1.268       .  A
C138        C180   1.471       .  S
O139        C149   1.251       .  A
O139       Al141   1.908       .  S
O140        C153   1.272       .  A
O140       Al150   1.886       .  S
Al141       O154   1.932       .  S
Al141       O151   1.923       .  S
Al141       O146   1.775       .  S
O142        C149   1.251       .  A
O142       Al150   1.897       .  S
O143        C152   1.257       .  A
O143       Al150   1.911       .  S
O144       Al150   1.891       .  S
O145        C152   1.259       .  A
O146       Al150   1.781       .  S
O147        C148   1.262       .  A
C148       C1144   1.482       .  S
C149        C228   1.475   1_455  S
C152        C309   1.483       .  S
C153        O154   1.278       .  A
C153        C276   1.480       .  S
O155        C170   1.274       .  A
O155       Al163   1.927       .  S
C156        O166   1.272       .  A
C156        O157   1.270       .  A
C156        C189   1.483       .  S
O157       Al159   1.900       .  S
O158        C160   1.252   1_655  A
O158       Al159   1.896       .  S
Al159       O167   1.911       .  S
Al159       O169   1.889       .  S
Al159       O168   1.778       .  S
C160        O173   1.252       .  A
C160        C252   1.472       .  S
O161        C171   1.268       .  A
O161       Al163   1.926       .  S
O162        C175   1.262       .  A
O162       Al172   1.933       .  S
Al163       O176   1.860       .  S
Al163       O173   1.906   1_655  S
Al163       O168   1.775       .  S
O164        C171   1.255       .  A
O164       Al172   1.855       .  S
O165        C174   1.263       .  A
O165       Al172   1.915       .  S
O166       Al172   1.931       .  S
O167        C174   1.259       .  A
O168       Al172   1.785       .  S
O169        C170   1.271       .  A
C170        C201   1.482       .  S
C171        C177   1.474       .  S
C174        C300   1.486       .  S
C175        O176   1.251       .  A
C175       C1192   1.484   1_545  S
C177       C1106   1.409       .  A
C177        C646   1.406   1_645  A
C178       C1105   1.409       .  A
C178        C643   1.395       .  A
C178        H183   1.084       .  S
C179        C180   1.403   1_655  A
C179        C642   1.395       .  A
C179        O184   1.372       .  S
C180        C181   1.409       .  A
C181       C1110   1.396   1_554  A
C181       H1113   1.084       .  S
C182        C641   1.406   1_465  A
C182       C1109   1.396   1_556  A
C182        O650   1.372       .  S
O184        H652   0.992       .  S
H185       C1109   1.084       .  S
O186        C646   1.372       .  S
O186        H651   0.992       .  S
H187        O650   0.992       .  S
H188        O648   0.992       .  S
C189        C194   1.411       .  A
C189        C654   1.405       .  A
C190        C191   1.398       .  A
C190        C653   1.405       .  A
C190        H659   1.084       .  S
C191        C192   1.413       .  A
C191        O196   1.372       .  S
C192        C193   1.406       .  A
C193        C658   1.399       .  A
C193        H197   1.083       .  S
C194        C657   1.399       .  A
C194        O198   1.371       .  S
H195        C654   1.084       .  S
O196        H200   0.992       .  S
O198        H199   0.992       .  S
C201        C202   1.405       .  A
C201        C206   1.414       .  A
C202        C203   1.396       .  A
C202        H207   1.084       .  S
C203        C204   1.411       .  A
C203        O208   1.372       .  S
C204        C205   1.404       .  A
C205        C206   1.398       .  A
C205        H209   1.084       .  S
C206        O210   1.372       .  S
O208        H212   0.992       .  S
O210        H211   0.992       .  S
C213        C214   1.400       .  A
C213        C218   1.410       .  A
C214        C215   1.399       .  A
C214        H219   1.084       .  S
C215        C216   1.413       .  A
C215        O220   1.372   1_545  S
C216       C1076   1.482   1_545  S
C216        C217   1.405       .  A
C217        C218   1.406       .  A
C217        H221   1.084       .  S
C218        O222   1.371       .  S
O220        H224   0.992       .  S
O222        H223   0.991       .  S
C225        C226   1.406       .  A
C225        C230   1.411       .  A
C226        C227   1.397       .  A
C226        H231   1.084       .  S
C227        C228   1.403       .  A
C227        O232   1.370       .  S
C228        C229   1.405       .  A
C229        C230   1.407       .  A
C229        H233   1.084       .  S
C230        O234   1.372       .  S
O232        H236   0.992       .  S
O234        H235   0.993       .  S
C237        C238   1.410       .  A
C237        C242   1.404   1_455  A
C238        C239   1.398       .  A
C238        H243   1.084       .  S
C239        C240   1.404   1_455  A
C239        O244   1.372       .  S
C240        C241   1.410       .  A
C241        C242   1.397       .  A
C241        H245   1.084       .  S
C242        O246   1.372       .  S
O244        H248   0.992       .  S
O246        H247   0.991       .  S
C249        C250   1.405       .  A
C249        C254   1.414       .  A
C250        C251   1.405       .  A
C250        H255   1.084       .  S
C251        C252   1.410       .  A
C251        O256   1.372       .  S
C252        C253   1.399       .  A
C253        C254   1.398       .  A
C253        H257   1.084       .  S
C254        O258   1.372       .  S
O256        H260   0.992       .  S
O258        H259   0.992       .  S
C261        C262   1.405       .  A
C261        C266   1.403       .  A
C262        C263   1.407       .  A
C262        H267   1.084       .  S
C263        C264   1.411       .  A
C263        O268   1.371       .  S
C264       C1103   1.484       .  S
C264        C265   1.408       .  A
C265        C266   1.398       .  A
C265        H269   1.084       .  S
C266        O270   1.372       .  S
O268        H272   0.991       .  S
O270        H271   0.992   1_655  S
C273        C274   1.406       .  A
C273        C278   1.411       .  A
C274        C275   1.396       .  A
C274        H279   1.083       .  S
C275        C276   1.410       .  A
C275        O280   1.372       .  S
C276        C277   1.406       .  A
C277        C278   1.398       .  A
C277        H281   1.083       .  S
C278        O282   1.371       .  S
O280        H284   0.992       .  S
O282        H283   0.992       .  S
C285        C286   1.404   1_554  A
C285        C290   1.411   1_554  A
C286        C751   1.398       .  A
C286        H291   1.083   1_556  S
C287        C288   1.413       .  A
C287        C750   1.398       .  A
C287        O292   1.372       .  S
C288        C289   1.403       .  A
C289        C754   1.398       .  A
C289        H293   1.083       .  S
C290        C753   1.397       .  A
C290        O294   1.369   1_556  S
O292        H296   0.992       .  S
O294        H759   0.992       .  S
H295        O758   0.992       .  S
C297        C298   1.402       .  A
C297        C302   1.415       .  A
C298        C299   1.401       .  A
C298        H303   1.084       .  S
C299        C300   1.416       .  A
C299        O304   1.372       .  S
C300        C301   1.401       .  A
C301        C302   1.399       .  A
C301        H305   1.083       .  S
C302        O306   1.372       .  S
O304        H308   0.992       .  S
O306        H307   0.991       .  S
C309        C310   1.410       .  A
C309        C314   1.407       .  A
C310        C311   1.400       .  A
C310        H315   1.083       .  S
C311        C312   1.408       .  A
C311        O316   1.372       .  S
C312        C313   1.408       .  A
C313        C314   1.398       .  A
C313        H317   1.083       .  S
C314        O318   1.371       .  S
O316        H320   0.992       .  S
O318        H319   0.992       .  S
C321        C322   1.411       .  A
C321        C326   1.404       .  A
C322        C323   1.397       .  A
C322        H327   1.083       .  S
C323        C324   1.403       .  A
C323        O328   1.372       .  S
C324        C325   1.412       .  A
C325        C326   1.398       .  A
C325        H329   1.083       .  S
C326        O330   1.372       .  S
O328        H332   0.992       .  S
O330        H331   0.992       .  S
C333        C334   1.402       .  A
C333        C338   1.414       .  A
C334        C335   1.399       .  A
C334        H339   1.084       .  S
C335        C336   1.415       .  A
C335        O340   1.372       .  S
C336        C337   1.402       .  A
C337        C338   1.399       .  A
C337        H341   1.083       .  S
C338        O342   1.372       .  S
O340        H344   0.992       .  S
O342        H343   0.991       .  S
C345        C346   1.404       .  A
C345        C350   1.412       .  A
C346        C347   1.398       .  A
C346        H351   1.083       .  S
C347        C348   1.412       .  A
C347        O352   1.370       .  S
C348        C349   1.406       .  A
C349        C350   1.399       .  A
C349        H353   1.083       .  S
C350        O354   1.372       .  S
O352        H356   0.991       .  S
O354        H355   0.992       .  S
C357        C358   1.406   1_554  A
C357        C362   1.412   1_554  A
C358        C823   1.399       .  A
C358        H363   1.083   1_556  S
C359        C360   1.412       .  A
C359        C822   1.399       .  A
C359        O364   1.372       .  S
C360        C361   1.405       .  A
C361        C826   1.399       .  A
C361        H365   1.084       .  S
C362        C825   1.399       .  A
C362        O366   1.371   1_556  S
O364        H368   0.992       .  S
O366        H367   0.992       .  S
C369        C370   1.404       .  A
C369        C374   1.403       .  A
C370        C371   1.405       .  A
C370        H375   1.084       .  S
C371        C372   1.411       .  A
C371        O376   1.371       .  S
C372        C373   1.408       .  A
C373        C374   1.399       .  A
C373        H377   1.084       .  S
C374        O378   1.372       .  S
O376        H380   0.992       .  S
O378        H379   0.992       .  S
C381        C382   1.399       .  A
C381        C386   1.409       .  A
C382        C383   1.399       .  A
C382        H387   1.084       .  S
C383        C384   1.414       .  A
C383        O388   1.372       .  S
C384        C385   1.406       .  A
C385        C386   1.404       .  A
C385        H389   1.084       .  S
C386        O390   1.372       .  S
O388        H392   0.992       .  S
O390        H391   0.992       .  S
C393        C394   1.403       .  A
C393        C398   1.415       .  A
C394        C395   1.400       .  A
C394        H399   1.084       .  S
C395        C396   1.415       .  A
C395        O400   1.372       .  S
C396        C397   1.400       .  A
C397        C398   1.396       .  A
C397        H401   1.083       .  S
C398        O402   1.372       .  S
O400        H404   0.992       .  S
O402        H403   0.992       .  S
C405        C410   1.403       .  A
C405        C870   1.412       .  A
C406        C407   1.398       .  A
C406        C869   1.412   1_554  A
C406        H411   1.084       .  S
C407       C1336   1.404       .  A
C407        O412   1.372       .  S
C408        C409   1.413       .  A
C408       C1335   1.404   1_545  A
C409       C1802   1.396   1_544  A
C409        H413   1.084       .  S
C410       C1801   1.396       .  A
C410        O414   1.372       .  S
O412        H416   0.992       .  S
O414       H1343   0.992       .  S
H415       O1342   0.992       .  S
C417        C944   1.480   1_545  S
C417        C418   1.407       .  A
C417        C422   1.410       .  A
C418        C419   1.398       .  A
C418       H1351   1.084   1_545  S
C419        C420   1.404       .  A
C419        O424   1.370       .  S
C420        C421   1.404       .  A
C421        C422   1.405       .  A
C421        H425   1.084       .  S
C422        O426   1.372       .  S
H423       C1346   1.084       .  S
O424       H1356   0.992       .  S
O426        H427   0.993       .  S
H428       O1352   0.992       .  S
C429        C430   1.409       .  A
C429        C434   1.411       .  A
C430        C431   1.398       .  A
C430        H435   1.084       .  S
C431        C432   1.404       .  A
C431        O436   1.371       .  S
C432        C433   1.404       .  A
C433        C434   1.406       .  A
C433        H437   1.084       .  S
C434        O438   1.372       .  S
O436        H440   0.992       .  S
O438        H439   0.993       .  S
C441        C442   1.406       .  A
C441        C446   1.412       .  A
C442        C443   1.398       .  A
C442        H447   1.083       .  S
C443        C444   1.411       .  A
C443        O448   1.372       .  S
C444        C445   1.405       .  A
C445        C446   1.398       .  A
C445        H449   1.084       .  S
C446        O450   1.372       .  S
O448        H452   0.992       .  S
O450        H451   0.992       .  S
C453        C918   1.404       .  A
C453        C922   1.412       .  A
C454        C455   1.398       .  A
C454        C917   1.404   1_554  A
C454        H923   1.083       .  S
C455        C456   1.414       .  A
C455        O460   1.372       .  S
C456        C457   1.403       .  A
C457        C458   1.396       .  A
C457        H461   1.083       .  S
C458        C917   1.412   1_554  A
C458        O926   1.370   1_554  S
H459        C918   1.083       .  S
O460        H464   0.992       .  S
O462        C922   1.370       .  S
O462        H927   0.992       .  S
H463        O926   0.992       .  S
O465        C480   1.251       .  A
O465       Al473   1.860       .  S
C466        O476   1.269       .  A
C466        O467   1.274       .  A
C466        C917   1.481       .  S
O467       Al469   1.933       .  S
O468        C470   1.254       .  A
O468       Al469   1.852       .  S
Al469       O477   1.908       .  S
Al469       O479   1.921       .  S
Al469       O478   1.789       .  S
C470        O483   1.269       .  A
C470        C869   1.478       .  S
O471        C481   1.249       .  A
O471       Al473   1.903       .  S
O472        C485   1.271       .  A
O472       Al482   1.887       .  S
Al473       O486   1.938       .  S
Al473       O483   1.930       .  S
Al473       O478   1.776       .  S
O474        C481   1.250       .  A
O474       Al482   1.895       .  S
O475        C484   1.255       .  A
O475       Al482   1.903       .  S
O476       Al482   1.887       .  S
O477        C484   1.259       .  A
O478       Al482   1.782       .  S
O479        C480   1.260       .  A
C480       C1809   1.480       .  S
C481        C896   1.474       .  S
C484        C857   1.483       .  S
C485        O486   1.279       .  A
C485        C908   1.482       .  S
O487        C502   1.277       .  A
O487       Al495   1.939       .  S
C488        O498   1.273       .  A
C488        O489   1.268       .  A
C488        C821   1.486       .  S
O489       Al491   1.895       .  S
O490        C492   1.252       .  A
O490       Al491   1.894       .  S
Al491       O499   1.910       .  S
Al491       O501   1.881       .  S
Al491       O500   1.782       .  S
C492        O505   1.252       .  A
C492        C833   1.473       .  S
O493        C503   1.272       .  A
O493       Al495   1.943       .  S
O494       C1435   1.261       .  A
O494       Al504   1.930       .  S
Al495       O508   1.863       .  S
Al495       O505   1.905       .  S
Al495       O500   1.775       .  S
O496        C503   1.254       .  A
O496       Al504   1.845       .  S
O497        C506   1.262       .  A
O497       Al504   1.907       .  S
O498       Al504   1.936       .  S
O499        C506   1.259       .  A
O500       Al504   1.784       .  S
O501        C502   1.268       .  A
C502        C809   1.482       .  S
C503        C872   1.480       .  S
C506        C797   1.482       .  S
C507       O1422   1.261       .  A
C507       O1436   1.250       .  A
C507        C848   1.482       .  S
O508       C1435   1.250       .  A
O509        C524   1.277       .  A
O509       Al517   1.939       .  S
C510        O520   1.273       .  A
C510        O511   1.267       .  A
C510        C905   1.484       .  S
O511       Al513   1.890       .  S
O512        C514   1.252       .  A
O512       Al513   1.892       .  S
Al513       O521   1.908       .  S
Al513       O523   1.873       .  S
Al513       O522   1.778       .  S
C514        O527   1.252       .  A
C514        C845   1.471       .  S
O515        C525   1.273       .  A
O515       Al517   1.945       .  S
O516        C529   1.261       .  A
O516       Al526   1.933       .  S
Al517       O530   1.861       .  S
Al517       O527   1.905       .  S
Al517       O522   1.773       .  S
O518        C525   1.255       .  A
O518       Al526   1.850       .  S
O519        C528   1.263       .  A
O519       Al526   1.914       .  S
O520       Al526   1.937       .  S
O521        C528   1.260       .  A
O522       Al526   1.784       .  S
O523        C524   1.266       .  A
C524        C920   1.481       .  S
C525        C788   1.477       .  S
C528        C776   1.482       .  S
C529        O530   1.250       .  A
C529        C836   1.484       .  S
O531        C546   1.249       .  A
O531       Al539   1.855       .  S
C532        O542   1.267       .  A
C532        O533   1.273       .  A
C532        C812   1.484       .  S
O533       Al535   1.935       .  S
O534        C536   1.254       .  A
O534       Al535   1.849       .  S
Al535       O543   1.914       .  S
Al535       O545   1.937       .  S
Al535       O544   1.785       .  S
C536        O549   1.271       .  A
C536        C785   1.477       .  S
O537        C547   1.251       .  A
O537       Al539   1.903       .  S
O538        C551   1.267       .  A
O538       Al548   1.883       .  S
Al539       O552   1.939       .  S
Al539       O549   1.943       .  S
Al539       O544   1.774       .  S
O540        C547   1.254       .  A
O540       Al548   1.901       .  S
O541        C550   1.260       .  A
O541       Al548   1.910       .  S
O542       Al548   1.892       .  S
O543        C550   1.264       .  A
O544       Al548   1.779       .  S
O545        C546   1.262       .  A
C546        C893   1.484       .  S
C547        C884   1.473       .  S
C550        C761   1.485       .  S
C551        O552   1.277       .  A
C551        C824   1.483       .  S
O553        C568   1.279       .  A
O553       Al561   1.940       .  S
C554        O564   1.273       .  A
C554        O555   1.269       .  A
C554        C737   1.482       .  S
O555       Al557   1.894       .  S
O556        C558   1.250       .  A
O556       Al557   1.888       .  S
Al557       O565   1.906       .  S
Al557       O567   1.877       .  S
Al557       O566   1.782       .  S
C558        O571   1.251   1_455  A
C558        C725   1.473   1_455  S
O559        C569   1.271       .  A
O559       Al561   1.937       .  S
O560        C573   1.260       .  A
O560       Al570   1.929       .  S
Al561       O574   1.858       .  S
Al561       O571   1.908   1_455  S
Al561       O566   1.775       .  S
O562        C569   1.256       .  A
O562       Al570   1.857       .  S
O563        C572   1.261       .  A
O563       Al570   1.910       .  S
O564       Al570   1.931       .  S
O565        C572   1.257       .  A
O566       Al570   1.784       .  S
O567        C568   1.268       .  A
C568        C752   1.482       .  S
C569        C701   1.474       .  S
C572        C860   1.481       .  S
C573        O574   1.249       .  A
C573        C713   1.482       .  S
O575        C590   1.250       .  A
O575       Al583   1.858       .  S
C576        O586   1.270       .  A
C576        O577   1.271       .  A
C576        C668   1.478       .  S
O577       Al579   1.929       .  S
O578        C580   1.255       .  A
O578       Al579   1.851       .  S
Al579       O587   1.908       .  S
Al579       O589   1.930       .  S
Al579       O588   1.785       .  S
C580        O593   1.271       .  A
C580        C704   1.474       .  S
O581        C591   1.252       .  A
O581       Al583   1.906   1_455  S
O582        C595   1.270       .  A
O582       Al592   1.886       .  S
Al583       O596   1.937       .  S
Al583       O593   1.938       .  S
Al583       O588   1.773       .  S
O584        C591   1.252   1_655  A
O584       Al592   1.899       .  S
O585        C594   1.259       .  A
O585       Al592   1.910       .  S
O586       Al592   1.897       .  S
O587        C594   1.262       .  A
O588       Al592   1.780       .  S
O589        C590   1.261       .  A
C590        C689   1.483       .  S
C591        C677   1.475       .  S
C594        C800   1.482       .  S
C595        O596   1.277       .  A
C595        C656   1.485       .  S
O597        C612   1.250       .  A
O597       Al605   1.856       .  S
C598        O608   1.270       .  A
C598        O599   1.275       .  A
C598        C749   1.483       .  S
O599       Al601   1.936       .  S
O600        C602   1.254       .  A
O600       Al601   1.852       .  S
Al601       O609   1.908       .  S
Al601       O611   1.932       .  S
Al601       O610   1.785       .  S
C602        O615   1.268       .  A
C602        C644   1.471       .  S
O603        C613   1.251       .  A
O603       Al605   1.908       .  S
O604        C617   1.272       .  A
O604       Al614   1.886       .  S
Al605       O618   1.932       .  S
Al605       O615   1.923       .  S
Al605       O610   1.775       .  S
O606        C613   1.251       .  A
O606       Al614   1.897       .  S
O607        C616   1.257       .  A
O607       Al614   1.911       .  S
O608       Al614   1.891       .  S
O609        C616   1.259       .  A
O610       Al614   1.781       .  S
O611        C612   1.262       .  A
C612       C1608   1.482       .  S
C613        C692   1.475   1_455  S
C616        C773   1.483       .  S
C617        O618   1.278       .  A
C617        C740   1.480       .  S
O619        C634   1.274       .  A
O619       Al627   1.927       .  S
C620        O630   1.272       .  A
C620        O621   1.270       .  A
C620        C653   1.483   1_556  S
O621       Al623   1.900       .  S
O622        C624   1.252   1_655  A
O622       Al623   1.896       .  S
Al623       O631   1.911       .  S
Al623       O633   1.889       .  S
Al623       O632   1.778       .  S
C624        O637   1.252       .  A
C624        C716   1.472       .  S
O625        C635   1.268       .  A
O625       Al627   1.926       .  S
O626        C639   1.262       .  A
O626       Al636   1.933       .  S
Al627       O640   1.860       .  S
Al627       O637   1.906   1_655  S
Al627       O632   1.775       .  S
O628        C635   1.255       .  A
O628       Al636   1.855       .  S
O629        C638   1.263       .  A
O629       Al636   1.915       .  S
O630       Al636   1.931       .  S
O631        C638   1.259       .  A
O632       Al636   1.785       .  S
O633        C634   1.271       .  A
C634        C665   1.482       .  S
C635        C641   1.474       .  S
C638        C764   1.486       .  S
C639        O640   1.251       .  A
C639       C1656   1.484   1_545  S
C641       C1570   1.409   1_556  A
C642       C1569   1.409   1_554  A
C642        H647   1.084       .  S
C643        C644   1.403   1_655  A
C643        O648   1.372       .  S
C644        C645   1.409       .  A
C645       C1574   1.396       .  A
C645       H1577   1.084       .  S
C646       C1573   1.396       .  A
H649       C1573   1.084       .  S
C653        C658   1.411       .  A
C654        C655   1.398       .  A
C655        C656   1.413       .  A
C655        O660   1.372       .  S
C656        C657   1.406       .  A
C657        H661   1.083       .  S
C658        O662   1.371   1_554  S
O660        H664   0.992       .  S
O662        H663   0.992       .  S
C665        C666   1.405       .  A
C665        C670   1.414       .  A
C666        C667   1.396       .  A
C666        H671   1.084       .  S
C667        C668   1.411       .  A
C667        O672   1.372       .  S
C668        C669   1.404       .  A
C669        C670   1.398       .  A
C669        H673   1.084       .  S
C670        O674   1.372       .  S
O672        H676   0.992       .  S
O674        H675   0.992       .  S
C677        C678   1.400       .  A
C677        C682   1.410       .  A
C678        C679   1.399       .  A
C678        H683   1.084       .  S
C679        C680   1.413       .  A
C679        O684   1.372   1_545  S
C680       C1540   1.482   1_545  S
C680        C681   1.405       .  A
C681        C682   1.406       .  A
C681        H685   1.084       .  S
C682        O686   1.371       .  S
O684        H688   0.992       .  S
O686        H687   0.991       .  S
C689        C690   1.406       .  A
C689        C694   1.411       .  A
C690        C691   1.397       .  A
C690        H695   1.084       .  S
C691        C692   1.403       .  A
C691        O696   1.370       .  S
C692        C693   1.405       .  A
C693        C694   1.407       .  A
C693        H697   1.084       .  S
C694        O698   1.372       .  S
O696        H700   0.992       .  S
O698        H699   0.993       .  S
C701        C702   1.410       .  A
C701        C706   1.404   1_455  A
C702        C703   1.398       .  A
C702        H707   1.084       .  S
C703        C704   1.404   1_455  A
C703        O708   1.372       .  S
C704        C705   1.410       .  A
C705        C706   1.397       .  A
C705        H709   1.084       .  S
C706        O710   1.372       .  S
O708        H712   0.992       .  S
O710        H711   0.991       .  S
C713        C714   1.405       .  A
C713        C718   1.414       .  A
C714        C715   1.405       .  A
C714        H719   1.084       .  S
C715        C716   1.410       .  A
C715        O720   1.372       .  S
C716        C717   1.399       .  A
C717        C718   1.398       .  A
C717        H721   1.084       .  S
C718        O722   1.372       .  S
O720        H724   0.992       .  S
O722        H723   0.992       .  S
C725        C726   1.405       .  A
C725        C730   1.403       .  A
C726        C727   1.407       .  A
C726        H731   1.084       .  S
C727        C728   1.411       .  A
C727        O732   1.371       .  S
C728       C1567   1.484       .  S
C728        C729   1.408       .  A
C729        C730   1.398       .  A
C729        H733   1.084       .  S
C730        O734   1.372       .  S
O732        H736   0.991       .  S
O734        H735   0.992   1_655  S
C737        C738   1.406       .  A
C737        C742   1.411       .  A
C738        C739   1.396       .  A
C738        H743   1.083       .  S
C739        C740   1.410       .  A
C739        O744   1.372       .  S
C740        C741   1.406       .  A
C741        C742   1.398       .  A
C741        H745   1.083       .  S
C742        O746   1.371       .  S
O744        H748   0.992       .  S
O746        H747   0.992       .  S
C749        C750   1.404       .  A
C749        C754   1.411       .  A
C750        H755   1.083       .  S
C751        C752   1.413       .  A
C751        O756   1.372       .  S
C752        C753   1.403       .  A
C753        H757   1.083       .  S
C754        O758   1.369       .  S
O756        H760   0.992       .  S
C761        C762   1.402       .  A
C761        C766   1.415       .  A
C762        C763   1.401       .  A
C762        H767   1.084       .  S
C763        C764   1.416       .  A
C763        O768   1.372       .  S
C764        C765   1.401       .  A
C765        C766   1.399       .  A
C765        H769   1.083       .  S
C766        O770   1.372       .  S
O768        H772   0.992       .  S
O770        H771   0.991       .  S
C773        C774   1.410       .  A
C773        C778   1.407       .  A
C774        C775   1.400       .  A
C774        H779   1.083       .  S
C775        C776   1.408       .  A
C775        O780   1.372       .  S
C776        C777   1.408       .  A
C777        C778   1.398       .  A
C777        H781   1.083       .  S
C778        O782   1.371       .  S
O780        H784   0.992       .  S
O782        H783   0.992       .  S
C785        C786   1.411       .  A
C785        C790   1.404       .  A
C786        C787   1.397       .  A
C786        H791   1.083       .  S
C787        C788   1.403       .  A
C787        O792   1.372       .  S
C788        C789   1.412       .  A
C789        C790   1.398       .  A
C789        H793   1.083       .  S
C790        O794   1.372       .  S
O792        H796   0.992       .  S
O794        H795   0.992       .  S
C797        C798   1.402       .  A
C797        C802   1.414       .  A
C798        C799   1.399       .  A
C798        H803   1.084       .  S
C799        C800   1.415       .  A
C799        O804   1.372       .  S
C800        C801   1.402       .  A
C801        C802   1.399       .  A
C801        H805   1.083       .  S
C802        O806   1.372       .  S
O804        H808   0.992       .  S
O806        H807   0.991       .  S
C809        C810   1.404       .  A
C809        C814   1.412       .  A
C810        C811   1.398       .  A
C810        H815   1.083       .  S
C811        C812   1.412       .  A
C811        O816   1.370       .  S
C812        C813   1.406       .  A
C813        C814   1.399       .  A
C813        H817   1.083       .  S
C814        O818   1.372       .  S
O816        H820   0.991       .  S
O818        H819   0.992       .  S
C821        C822   1.406       .  A
C821        C826   1.412       .  A
C822        H827   1.083       .  S
C823        C824   1.412       .  A
C823        O828   1.372       .  S
C824        C825   1.405       .  A
C825        H829   1.084       .  S
C826        O830   1.371       .  S
O828        H832   0.992       .  S
O830        H831   0.992       .  S
C833        C834   1.404       .  A
C833        C838   1.403       .  A
C834        C835   1.405       .  A
C834        H839   1.084       .  S
C835        C836   1.411       .  A
C835        O840   1.371       .  S
C836        C837   1.408       .  A
C837        C838   1.399       .  A
C837        H841   1.084       .  S
C838        O842   1.372       .  S
O840        H844   0.992       .  S
O842        H843   0.992       .  S
C845        C846   1.399       .  A
C845        C850   1.409       .  A
C846        C847   1.399       .  A
C846        H851   1.084       .  S
C847        C848   1.414       .  A
C847        O852   1.372       .  S
C848        C849   1.406       .  A
C849        C850   1.404       .  A
C849        H853   1.084       .  S
C850        O854   1.372       .  S
O852        H856   0.992       .  S
O854        H855   0.992       .  S
C857        C858   1.403       .  A
C857        C862   1.415       .  A
C858        C859   1.400       .  A
C858        H863   1.084       .  S
C859        C860   1.415       .  A
C859        O864   1.372       .  S
C860        C861   1.400       .  A
C861        C862   1.396       .  A
C861        H865   1.083       .  S
C862        O866   1.372       .  S
O864        H868   0.992       .  S
O866        H867   0.992       .  S
C869        C874   1.403       .  A
C870        C871   1.398       .  A
C870        H875   1.084       .  S
C871       C1800   1.404       .  A
C871        O876   1.372       .  S
C872       C1799   1.404   1_545  A
C872        C873   1.413       .  A
C873       C1338   1.396   1_545  A
C873        H877   1.084       .  S
C874       C1337   1.396   1_556  A
C874        O878   1.372       .  S
O876        H880   0.992       .  S
O878       H1807   0.992       .  S
H879       O1806   0.992       .  S
C881       C1408   1.480   1_545  S
C881        C882   1.407       .  A
C881        C886   1.410       .  A
C882        C883   1.398       .  A
C882       H1815   1.084   1_545  S
C883        C884   1.404       .  A
C883        O888   1.370       .  S
C884        C885   1.404       .  A
C885        C886   1.405       .  A
C885        H889   1.084       .  S
C886        O890   1.372       .  S
H887       C1810   1.084       .  S
O888       H1820   0.992       .  S
O890        H891   0.993       .  S
H892       O1816   0.992       .  S
C893        C894   1.409       .  A
C893        C898   1.411       .  A
C894        C895   1.398       .  A
C894        H899   1.084       .  S
C895        C896   1.404       .  A
C895        O900   1.371       .  S
C896        C897   1.404       .  A
C897        C898   1.406       .  A
C897        H901   1.084       .  S
C898        O902   1.372       .  S
O900        H904   0.992       .  S
O902        H903   0.993       .  S
C905        C906   1.406       .  A
C905        C910   1.412       .  A
C906        C907   1.398       .  A
C906        H911   1.083       .  S
C907        C908   1.411       .  A
C907        O912   1.372       .  S
C908        C909   1.405       .  A
C909        C910   1.398       .  A
C909        H913   1.084       .  S
C910        O914   1.372       .  S
O912        H916   0.992       .  S
O914        H915   0.992       .  S
C918        C919   1.398       .  A
C919        C920   1.414       .  A
C919        O924   1.372       .  S
C920        C921   1.403       .  A
C921        C922   1.396       .  A
C921        H925   1.083       .  S
O924        H928   0.992       .  S
O929        C944   1.251       .  A
O929       Al937   1.860       .  S
C930        O940   1.269       .  A
C930        O931   1.274       .  A
C930       C1381   1.481       .  S
O931       Al933   1.933       .  S
O932        C934   1.254       .  A
O932       Al933   1.852       .  S
Al933       O941   1.908       .  S
Al933       O943   1.921       .  S
Al933       O942   1.789       .  S
C934        O947   1.269       .  A
C934       C1333   1.478       .  S
O935        C945   1.249       .  A
O935       Al937   1.903       .  S
O936        C949   1.271       .  A
O936       Al946   1.887       .  S
Al937       O950   1.938       .  S
Al937       O947   1.930       .  S
Al937       O942   1.776       .  S
O938        C945   1.250       .  A
O938       Al946   1.895       .  S
O939        C948   1.255       .  A
O939       Al946   1.903       .  S
O940       Al946   1.887       .  S
O941        C948   1.259       .  A
O942       Al946   1.782       .  S
O943        C944   1.260       .  A
C945       C1360   1.474       .  S
C948       C1321   1.483       .  S
C949        O950   1.279       .  A
C949       C1372   1.482       .  S
O951        C966   1.277       .  A
O951       Al959   1.939       .  S
C952        O962   1.273       .  A
C952        O953   1.268       .  A
C952       C1285   1.486       .  S
O953       Al955   1.895       .  S
O954        C956   1.252       .  A
O954       Al955   1.894       .  S
Al955       O963   1.910       .  S
Al955       O965   1.881       .  S
Al955       O964   1.782       .  S
C956        O969   1.252       .  A
C956       C1297   1.473       .  S
O957        C967   1.272       .  A
O957       Al959   1.943       .  S
O958       Al968   1.930       .  S
Al959       O972   1.863       .  S
Al959       O969   1.905       .  S
Al959       O964   1.775       .  S
O960        C967   1.254       .  A
O960       Al968   1.845       .  S
O961        C970   1.262       .  A
O961       Al968   1.907       .  S
O962       Al968   1.936       .  S
O963        C970   1.259       .  A
O964       Al968   1.784       .  S
O965        C966   1.268       .  A
C966       C1273   1.482       .  S
C967       C1336   1.480       .  S
C970       C1261   1.482       .  S
C971       C1312   1.482   1_545  S
O973        C988   1.277       .  A
O973       Al981   1.939       .  S
C974        O984   1.273       .  A
C974        O975   1.267       .  A
C974       C1369   1.484       .  S
O975       Al977   1.890       .  S
O976        C978   1.252       .  A
O976       Al977   1.892       .  S
Al977       O985   1.908       .  S
Al977       O987   1.873       .  S
Al977       O986   1.778       .  S
C978        O991   1.252       .  A
C978       C1309   1.471       .  S
O979        C989   1.273       .  A
O979       Al981   1.945       .  S
O980        C993   1.261       .  A
O980       Al990   1.933       .  S
Al981       O994   1.861       .  S
Al981       O991   1.905       .  S
Al981       O986   1.773       .  S
O982        C989   1.255       .  A
O982       Al990   1.850       .  S
O983        C992   1.263       .  A
O983       Al990   1.914       .  S
O984       Al990   1.937       .  S
O985        C992   1.260       .  A
O986       Al990   1.784       .  S
O987        C988   1.266       .  A
C988       C1384   1.481       .  S
C989       C1252   1.477       .  S
C992       C1240   1.482       .  S
C993        O994   1.250       .  A
C993       C1300   1.484       .  S
O995       C1010   1.249       .  A
O995      Al1003   1.855       .  S
C996       O1006   1.267       .  A
C996        O997   1.273       .  A
C996       C1276   1.484       .  S
O997       Al999   1.935       .  S
O998       C1000   1.254       .  A
O998       Al999   1.849       .  S
Al999      O1007   1.914       .  S
Al999      O1009   1.937       .  S
Al999      O1008   1.785       .  S
C1000      O1013   1.271       .  A
C1000      C1249   1.477       .  S
O1001      C1011   1.251       .  A
O1001     Al1003   1.903       .  S
O1002      C1015   1.267       .  A
O1002     Al1012   1.883       .  S
Al1003     O1016   1.939       .  S
Al1003     O1013   1.943       .  S
Al1003     O1008   1.774       .  S
O1004      C1011   1.254       .  A
O1004     Al1012   1.901       .  S
O1005      C1014   1.260       .  A
O1005     Al1012   1.910       .  S
O1006     Al1012   1.892       .  S
O1007      C1014   1.264       .  A
O1008     Al1012   1.779       .  S
O1009      C1010   1.262       .  A
C1010      C1357   1.484       .  S
C1011      C1348   1.473       .  S
C1014      C1225   1.485       .  S
C1015      O1016   1.277       .  A
C1015      C1288   1.483       .  S
O1017      C1032   1.279       .  A
O1017     Al1025   1.940       .  S
C1018      O1028   1.273       .  A
C1018      O1019   1.269       .  A
C1018      C1201   1.482       .  S
O1019     Al1021   1.894       .  S
O1020      C1022   1.250       .  A
O1020     Al1021   1.888       .  S
Al1021     O1029   1.906       .  S
Al1021     O1031   1.877       .  S
Al1021     O1030   1.782       .  S
C1022      O1035   1.251   1_455  A
C1022      C1189   1.473   1_455  S
O1023      C1033   1.271       .  A
O1023     Al1025   1.937       .  S
O1024      C1037   1.260       .  A
O1024     Al1034   1.929       .  S
Al1025     O1038   1.858       .  S
Al1025     O1035   1.908   1_455  S
Al1025     O1030   1.775       .  S
O1026      C1033   1.256       .  A
O1026     Al1034   1.857       .  S
O1027      C1036   1.261       .  A
O1027     Al1034   1.910       .  S
O1028     Al1034   1.931       .  S
O1029      C1036   1.257       .  A
O1030     Al1034   1.784       .  S
O1031      C1032   1.268       .  A
C1032      C1216   1.482       .  S
C1033      C1165   1.474       .  S
C1036      C1324   1.481       .  S
C1037      O1038   1.249       .  A
C1037      C1177   1.482       .  S
O1039      C1054   1.250       .  A
O1039     Al1047   1.858       .  S
C1040      O1050   1.270       .  A
C1040      O1041   1.271       .  A
C1040      C1132   1.478       .  S
O1041     Al1043   1.929       .  S
O1042      C1044   1.255       .  A
O1042     Al1043   1.851       .  S
Al1043     O1051   1.908       .  S
Al1043     O1053   1.930       .  S
Al1043     O1052   1.785       .  S
C1044      O1057   1.271       .  A
C1044      C1168   1.474       .  S
O1045      C1055   1.252       .  A
O1045     Al1047   1.906   1_455  S
O1046      C1059   1.270       .  A
O1046     Al1056   1.886       .  S
Al1047     O1060   1.937       .  S
Al1047     O1057   1.938       .  S
Al1047     O1052   1.773       .  S
O1048      C1055   1.252   1_655  A
O1048     Al1056   1.899       .  S
O1049      C1058   1.259       .  A
O1049     Al1056   1.910       .  S
O1050     Al1056   1.897       .  S
O1051      C1058   1.262       .  A
O1052     Al1056   1.780       .  S
O1053      C1054   1.261       .  A
C1054      C1153   1.483       .  S
C1055      C1141   1.475       .  S
C1058      C1264   1.482       .  S
C1059      O1060   1.277       .  A
C1059      C1120   1.485       .  S
O1061      C1076   1.250       .  A
O1061     Al1069   1.856       .  S
C1062      O1072   1.270       .  A
C1062      O1063   1.275       .  A
C1062      C1213   1.483       .  S
O1063     Al1065   1.936       .  S
O1064      C1066   1.254       .  A
O1064     Al1065   1.852       .  S
Al1065     O1073   1.908       .  S
Al1065     O1075   1.932       .  S
Al1065     O1074   1.785       .  S
C1066      O1079   1.268       .  A
C1066      C1108   1.471       .  S
O1067      C1077   1.251       .  A
O1067     Al1069   1.908       .  S
O1068      C1081   1.272       .  A
O1068     Al1078   1.886       .  S
Al1069     O1082   1.932       .  S
Al1069     O1079   1.923       .  S
Al1069     O1074   1.775       .  S
O1070      C1077   1.251       .  A
O1070     Al1078   1.897       .  S
O1071      C1080   1.257       .  A
O1071     Al1078   1.911       .  S
O1072     Al1078   1.891       .  S
O1073      C1080   1.259       .  A
O1074     Al1078   1.781       .  S
O1075      C1076   1.262       .  A
C1077      C1156   1.475   1_455  S
C1080      C1237   1.483       .  S
C1081      O1082   1.278       .  A
C1081      C1204   1.480       .  S
O1083      C1098   1.274       .  A
O1083     Al1091   1.927       .  S
C1084      O1094   1.272       .  A
C1084      O1085   1.270       .  A
C1084      C1117   1.483       .  S
O1085     Al1087   1.900       .  S
O1086      C1088   1.252   1_655  A
O1086     Al1087   1.896       .  S
Al1087     O1095   1.911       .  S
Al1087     O1097   1.889       .  S
Al1087     O1096   1.778       .  S
C1088      O1101   1.252       .  A
C1088      C1180   1.472       .  S
O1089      C1099   1.268       .  A
O1089     Al1091   1.926       .  S
O1090      C1103   1.262       .  A
O1090     Al1100   1.933       .  S
Al1091     O1104   1.860       .  S
Al1091     O1101   1.906   1_655  S
Al1091     O1096   1.775       .  S
O1092      C1099   1.255       .  A
O1092     Al1100   1.855       .  S
O1093      C1102   1.263       .  A
O1093     Al1100   1.915       .  S
O1094     Al1100   1.931       .  S
O1095      C1102   1.259       .  A
O1096     Al1100   1.785       .  S
O1097      C1098   1.271       .  A
C1098      C1129   1.482       .  S
C1099      C1105   1.474       .  S
C1102      C1228   1.486       .  S
C1103      O1104   1.251       .  A
C1105      C1574   1.406   1_655  A
C1106      C1571   1.395   1_545  A
C1106      H1111   1.084       .  S
C1107      C1570   1.395   1_565  A
C1107      C1108   1.403   1_655  A
C1107      O1112   1.372       .  S
C1108      C1109   1.409       .  A
C1110      C1569   1.406   1_455  A
C1110      O1578   1.372       .  S
O1112      H1580   0.992       .  S
O1114      C1574   1.372       .  S
O1114      H1579   0.992       .  S
H1115      O1578   0.992       .  S
H1116      O1576   0.992       .  S
C1117      C1582   1.405       .  A
C1117      C1122   1.411       .  A
C1118      C1581   1.405       .  A
C1118      C1119   1.398       .  A
C1118      H1587   1.084       .  S
C1119      C1120   1.413       .  A
C1119      O1124   1.372       .  S
C1120      C1121   1.406       .  A
C1121      C1586   1.399       .  A
C1121      H1125   1.083       .  S
C1122      C1585   1.399       .  A
C1122      O1126   1.371       .  S
H1123      C1582   1.084       .  S
O1124      H1128   0.992       .  S
O1126      H1127   0.992       .  S
C1129      C1130   1.405       .  A
C1129      C1134   1.414       .  A
C1130      C1131   1.396       .  A
C1130      H1135   1.084       .  S
C1131      C1132   1.411       .  A
C1131      O1136   1.372       .  S
C1132      C1133   1.404       .  A
C1133      C1134   1.398       .  A
C1133      H1137   1.084       .  S
C1134      O1138   1.372       .  S
O1136      H1140   0.992       .  S
O1138      H1139   0.992       .  S
C1141      C1142   1.400       .  A
C1141      C1146   1.410       .  A
C1142      C1143   1.399       .  A
C1142      H1147   1.084       .  S
C1143      C1144   1.413       .  A
C1143      O1148   1.372       .  S
C1144      C1145   1.405       .  A
C1145      C1146   1.406       .  A
C1145      H1149   1.084       .  S
C1146      O1150   1.371       .  S
O1148      H1152   0.992       .  S
O1150      H1151   0.991       .  S
C1153      C1154   1.406       .  A
C1153      C1158   1.411       .  A
C1154      C1155   1.397       .  A
C1154      H1159   1.084       .  S
C1155      C1156   1.403       .  A
C1155      O1160   1.370       .  S
C1156      C1157   1.405       .  A
C1157      C1158   1.407       .  A
C1157      H1161   1.084       .  S
C1158      O1162   1.372       .  S
O1160      H1164   0.992       .  S
O1162      H1163   0.993       .  S
C1165      C1166   1.410       .  A
C1165      C1170   1.404   1_455  A
C1166      C1167   1.398       .  A
C1166      H1171   1.084       .  S
C1167      C1168   1.404   1_455  A
C1167      O1172   1.372       .  S
C1168      C1169   1.410       .  A
C1169      C1170   1.397       .  A
C1169      H1173   1.084       .  S
C1170      O1174   1.372       .  S
O1172      H1176   0.992       .  S
O1174      H1175   0.991       .  S
C1177      C1178   1.405       .  A
C1177      C1182   1.414       .  A
C1178      C1179   1.405       .  A
C1178      H1183   1.084       .  S
C1179      C1180   1.410       .  A
C1179      O1184   1.372       .  S
C1180      C1181   1.399       .  A
C1181      C1182   1.398       .  A
C1181      H1185   1.084       .  S
C1182      O1186   1.372       .  S
O1184      H1188   0.992       .  S
O1186      H1187   0.992       .  S
C1189      C1190   1.405       .  A
C1189      C1194   1.403       .  A
C1190      C1191   1.407       .  A
C1190      H1195   1.084       .  S
C1191      C1192   1.411       .  A
C1191      O1196   1.371       .  S
C1192      C1193   1.408       .  A
C1193      C1194   1.398       .  A
C1193      H1197   1.084       .  S
C1194      O1198   1.372       .  S
O1196      H1200   0.991       .  S
O1198      H1199   0.992   1_655  S
C1201      C1202   1.406       .  A
C1201      C1206   1.411       .  A
C1202      C1203   1.396       .  A
C1202      H1207   1.083       .  S
C1203      C1204   1.410       .  A
C1203      O1208   1.372       .  S
C1204      C1205   1.406       .  A
C1205      C1206   1.398       .  A
C1205      H1209   1.083       .  S
C1206      O1210   1.371       .  S
O1208      H1212   0.992       .  S
O1210      H1211   0.992       .  S
C1213      C1214   1.404   1_554  A
C1213      C1218   1.411   1_554  A
C1214      C1679   1.398       .  A
C1214      H1219   1.083   1_556  S
C1215      C1678   1.398       .  A
C1215      C1216   1.413       .  A
C1215      O1220   1.372       .  S
C1216      C1217   1.403       .  A
C1217      C1682   1.398       .  A
C1217      H1221   1.083       .  S
C1218      C1681   1.397       .  A
C1218      O1222   1.369   1_556  S
O1220      H1224   0.992       .  S
O1222      H1687   0.992       .  S
H1223      O1686   0.992       .  S
C1225      C1226   1.402       .  A
C1225      C1230   1.415       .  A
C1226      C1227   1.401       .  A
C1226      H1231   1.084       .  S
C1227      C1228   1.416       .  A
C1227      O1232   1.372       .  S
C1228      C1229   1.401       .  A
C1229      C1230   1.399       .  A
C1229      H1233   1.083       .  S
C1230      O1234   1.372       .  S
O1232      H1236   0.992       .  S
O1234      H1235   0.991       .  S
C1237      C1238   1.410       .  A
C1237      C1242   1.407       .  A
C1238      C1239   1.400       .  A
C1238      H1243   1.083       .  S
C1239      C1240   1.408       .  A
C1239      O1244   1.372       .  S
C1240      C1241   1.408       .  A
C1241      C1242   1.398       .  A
C1241      H1245   1.083       .  S
C1242      O1246   1.371       .  S
O1244      H1248   0.992       .  S
O1246      H1247   0.992       .  S
C1249      C1250   1.411       .  A
C1249      C1254   1.404       .  A
C1250      C1251   1.397       .  A
C1250      H1255   1.083       .  S
C1251      C1252   1.403       .  A
C1251      O1256   1.372       .  S
C1252      C1253   1.412       .  A
C1253      C1254   1.398       .  A
C1253      H1257   1.083       .  S
C1254      O1258   1.372       .  S
O1256      H1260   0.992       .  S
O1258      H1259   0.992       .  S
C1261      C1262   1.402       .  A
C1261      C1266   1.414       .  A
C1262      C1263   1.399       .  A
C1262      H1267   1.084       .  S
C1263      C1264   1.415       .  A
C1263      O1268   1.372       .  S
C1264      C1265   1.402       .  A
C1265      C1266   1.399       .  A
C1265      H1269   1.083       .  S
C1266      O1270   1.372       .  S
O1268      H1272   0.992       .  S
O1270      H1271   0.991       .  S
C1273      C1274   1.404       .  A
C1273      C1278   1.412       .  A
C1274      C1275   1.398       .  A
C1274      H1279   1.083       .  S
C1275      C1276   1.412       .  A
C1275      O1280   1.370       .  S
C1276      C1277   1.406       .  A
C1277      C1278   1.399       .  A
C1277      H1281   1.083       .  S
C1278      O1282   1.372       .  S
O1280      H1284   0.991       .  S
O1282      H1283   0.992       .  S
C1285      C1286   1.406   1_554  A
C1285      C1290   1.412   1_554  A
C1286      C1751   1.399       .  A
C1286      H1291   1.083   1_556  S
C1287      C1750   1.399       .  A
C1287      C1288   1.412       .  A
C1287      O1292   1.372       .  S
C1288      C1289   1.405       .  A
C1289      C1754   1.399       .  A
C1289      H1293   1.084       .  S
C1290      C1753   1.399       .  A
C1290      O1294   1.371   1_556  S
O1292      H1296   0.992       .  S
O1294      H1295   0.992       .  S
C1297      C1298   1.404       .  A
C1297      C1302   1.403       .  A
C1298      C1299   1.405       .  A
C1298      H1303   1.084       .  S
C1299      C1300   1.411       .  A
C1299      O1304   1.371       .  S
C1300      C1301   1.408       .  A
C1301      C1302   1.399       .  A
C1301      H1305   1.084       .  S
C1302      O1306   1.372       .  S
O1304      H1308   0.992       .  S
O1306      H1307   0.992       .  S
C1309      C1310   1.399       .  A
C1309      C1314   1.409       .  A
C1310      C1311   1.399       .  A
C1310      H1315   1.084       .  S
C1311      C1312   1.414       .  A
C1311      O1316   1.372       .  S
C1312      C1313   1.406       .  A
C1313      C1314   1.404       .  A
C1313      H1317   1.084       .  S
C1314      O1318   1.372       .  S
O1316      H1320   0.992   1_565  S
O1318      H1319   0.992       .  S
C1321      C1322   1.403       .  A
C1321      C1326   1.415       .  A
C1322      C1323   1.400       .  A
C1322      H1327   1.084       .  S
C1323      C1324   1.415       .  A
C1323      O1328   1.372       .  S
C1324      C1325   1.400       .  A
C1325      C1326   1.396       .  A
C1325      H1329   1.083       .  S
C1326      O1330   1.372       .  S
O1328      H1332   0.992       .  S
O1330      H1331   0.992       .  S
C1333      C1798   1.412       .  A
C1333      C1338   1.403       .  A
C1334      C1797   1.412   1_554  A
C1334      C1335   1.398       .  A
C1334      H1339   1.084       .  S
C1335      O1340   1.372       .  S
C1336      C1337   1.413       .  A
C1337      H1341   1.084       .  S
C1338      O1342   1.372       .  S
O1340      H1344   0.992   1_565  S
C1345      C1346   1.407       .  A
C1345      C1350   1.410       .  A
C1346      C1347   1.398       .  A
C1347      C1348   1.404       .  A
C1347      O1352   1.370       .  S
C1348      C1349   1.404       .  A
C1349      C1350   1.405       .  A
C1349      H1353   1.084       .  S
C1350      O1354   1.372       .  S
O1354      H1355   0.993       .  S
C1357      C1358   1.409       .  A
C1357      C1362   1.411       .  A
C1358      C1359   1.398       .  A
C1358      H1363   1.084       .  S
C1359      C1360   1.404       .  A
C1359      O1364   1.371       .  S
C1360      C1361   1.404       .  A
C1361      C1362   1.406       .  A
C1361      H1365   1.084       .  S
C1362      O1366   1.372       .  S
O1364      H1368   0.992       .  S
O1366      H1367   0.993       .  S
C1369      C1370   1.406       .  A
C1369      C1374   1.412       .  A
C1370      C1371   1.398       .  A
C1370      H1375   1.083       .  S
C1371      C1372   1.411       .  A
C1371      O1376   1.372       .  S
C1372      C1373   1.405       .  A
C1373      C1374   1.398       .  A
C1373      H1377   1.084       .  S
C1374      O1378   1.372       .  S
O1376      H1380   0.992       .  S
O1378      H1379   0.992       .  S
C1381      C1846   1.404       .  A
C1381      C1850   1.412       .  A
C1382      C1845   1.404   1_554  A
C1382      C1383   1.398       .  A
C1382      H1851   1.083       .  S
C1383      C1384   1.414       .  A
C1383      O1388   1.372       .  S
C1384      C1385   1.403       .  A
C1385      C1386   1.396       .  A
C1385      H1389   1.083       .  S
C1386      C1845   1.412   1_554  A
C1386      O1854   1.370   1_554  S
H1387      C1846   1.083       .  S
O1388      H1392   0.992       .  S
O1390      C1850   1.370       .  S
O1390      H1855   0.992       .  S
H1391      O1854   0.992       .  S
O1393      C1408   1.251       .  A
O1393     Al1401   1.860       .  S
C1394      O1404   1.269       .  A
C1394      O1395   1.274       .  A
C1394      C1845   1.481       .  S
O1395     Al1397   1.933       .  S
O1396      C1398   1.254       .  A
O1396     Al1397   1.852       .  S
Al1397     O1405   1.908       .  S
Al1397     O1407   1.921       .  S
Al1397     O1406   1.789       .  S
C1398      O1411   1.269       .  A
C1398      C1797   1.478       .  S
O1399      C1409   1.249       .  A
O1399     Al1401   1.903       .  S
O1400      C1413   1.271       .  A
O1400     Al1410   1.887       .  S
Al1401     O1414   1.938       .  S
Al1401     O1411   1.930       .  S
Al1401     O1406   1.776       .  S
O1402      C1409   1.250       .  A
O1402     Al1410   1.895       .  S
O1403      C1412   1.255       .  A
O1403     Al1410   1.903       .  S
O1404     Al1410   1.887       .  S
O1405      C1412   1.259       .  A
O1406     Al1410   1.782       .  S
O1407      C1408   1.260       .  A
C1409      C1824   1.474       .  S
C1412      C1785   1.483       .  S
C1413      O1414   1.279       .  A
C1413      C1836   1.482       .  S
O1415      C1430   1.277       .  A
O1415     Al1423   1.939       .  S
C1416      O1426   1.273       .  A
C1416      O1417   1.268       .  A
C1416      C1749   1.486       .  S
O1417     Al1419   1.895       .  S
O1418      C1420   1.252       .  A
O1418     Al1419   1.894       .  S
Al1419     O1427   1.910       .  S
Al1419     O1429   1.881       .  S
Al1419     O1428   1.782       .  S
C1420      O1433   1.252       .  A
C1420      C1761   1.473       .  S
O1421      C1431   1.272       .  A
O1421     Al1423   1.943       .  S
O1422     Al1432   1.930       .  S
Al1423     O1436   1.863       .  S
Al1423     O1433   1.905       .  S
Al1423     O1428   1.775       .  S
O1424      C1431   1.254       .  A
O1424     Al1432   1.845       .  S
O1425      C1434   1.262       .  A
O1425     Al1432   1.907       .  S
O1426     Al1432   1.936       .  S
O1427      C1434   1.259       .  A
O1428     Al1432   1.784       .  S
O1429      C1430   1.268       .  A
C1430      C1737   1.482       .  S
C1431      C1800   1.480       .  S
C1434      C1725   1.482       .  S
C1435      C1776   1.482   1_545  S
O1437      C1452   1.277       .  A
O1437     Al1445   1.939       .  S
C1438      O1448   1.273       .  A
C1438      O1439   1.267       .  A
C1438      C1833   1.484       .  S
O1439     Al1441   1.890       .  S
O1440      C1442   1.252       .  A
O1440     Al1441   1.892       .  S
Al1441     O1449   1.908       .  S
Al1441     O1451   1.873       .  S
Al1441     O1450   1.778       .  S
C1442      O1455   1.252       .  A
C1442      C1773   1.471       .  S
O1443      C1453   1.273       .  A
O1443     Al1445   1.945       .  S
O1444      C1457   1.261       .  A
O1444     Al1454   1.933       .  S
Al1445     O1458   1.861       .  S
Al1445     O1455   1.905       .  S
Al1445     O1450   1.773       .  S
O1446      C1453   1.255       .  A
O1446     Al1454   1.850       .  S
O1447      C1456   1.263       .  A
O1447     Al1454   1.914       .  S
O1448     Al1454   1.937       .  S
O1449      C1456   1.260       .  A
O1450     Al1454   1.784       .  S
O1451      C1452   1.266       .  A
C1452      C1848   1.481       .  S
C1453      C1716   1.477       .  S
C1456      C1704   1.482       .  S
C1457      O1458   1.250       .  A
C1457      C1764   1.484       .  S
O1459      C1474   1.249       .  A
O1459     Al1467   1.855       .  S
C1460      O1470   1.267       .  A
C1460      O1461   1.273       .  A
C1460      C1740   1.484       .  S
O1461     Al1463   1.935       .  S
O1462      C1464   1.254       .  A
O1462     Al1463   1.849       .  S
Al1463     O1471   1.914       .  S
Al1463     O1473   1.937       .  S
Al1463     O1472   1.785       .  S
C1464      O1477   1.271       .  A
C1464      C1713   1.477       .  S
O1465      C1475   1.251       .  A
O1465     Al1467   1.903       .  S
O1466      C1479   1.267       .  A
O1466     Al1476   1.883       .  S
Al1467     O1480   1.939       .  S
Al1467     O1477   1.943       .  S
Al1467     O1472   1.774       .  S
O1468      C1475   1.254       .  A
O1468     Al1476   1.901       .  S
O1469      C1478   1.260       .  A
O1469     Al1476   1.910       .  S
O1470     Al1476   1.892       .  S
O1471      C1478   1.264       .  A
O1472     Al1476   1.779       .  S
O1473      C1474   1.262       .  A
C1474      C1821   1.484       .  S
C1475      C1812   1.473       .  S
C1478      C1689   1.485       .  S
C1479      O1480   1.277       .  A
C1479      C1752   1.483       .  S
O1481      C1496   1.279       .  A
O1481     Al1489   1.940       .  S
C1482      O1492   1.273       .  A
C1482      O1483   1.269       .  A
C1482      C1665   1.482       .  S
O1483     Al1485   1.894       .  S
O1484      C1486   1.250       .  A
O1484     Al1485   1.888       .  S
Al1485     O1493   1.906       .  S
Al1485     O1495   1.877       .  S
Al1485     O1494   1.782       .  S
C1486      O1499   1.251   1_455  A
C1486      C1653   1.473   1_455  S
O1487      C1497   1.271       .  A
O1487     Al1489   1.937       .  S
O1488      C1501   1.260       .  A
O1488     Al1498   1.929       .  S
Al1489     O1502   1.858       .  S
Al1489     O1499   1.908   1_455  S
Al1489     O1494   1.775       .  S
O1490      C1497   1.256       .  A
O1490     Al1498   1.857       .  S
O1491      C1500   1.261       .  A
O1491     Al1498   1.910       .  S
O1492     Al1498   1.931       .  S
O1493      C1500   1.257       .  A
O1494     Al1498   1.784       .  S
O1495      C1496   1.268       .  A
C1496      C1680   1.482       .  S
C1497      C1629   1.474       .  S
C1500      C1788   1.481       .  S
C1501      O1502   1.249       .  A
C1501      C1641   1.482       .  S
O1503      C1518   1.250       .  A
O1503     Al1511   1.858       .  S
C1504      O1514   1.270       .  A
C1504      O1505   1.271       .  A
C1504      C1596   1.478       .  S
O1505     Al1507   1.929       .  S
O1506      C1508   1.255       .  A
O1506     Al1507   1.851       .  S
Al1507     O1515   1.908       .  S
Al1507     O1517   1.930       .  S
Al1507     O1516   1.785       .  S
C1508      O1521   1.271       .  A
C1508      C1632   1.474       .  S
O1509      C1519   1.252       .  A
O1509     Al1511   1.906   1_455  S
O1510      C1523   1.270       .  A
O1510     Al1520   1.886       .  S
Al1511     O1524   1.937       .  S
Al1511     O1521   1.938       .  S
Al1511     O1516   1.773       .  S
O1512      C1519   1.252   1_655  A
O1512     Al1520   1.899       .  S
O1513      C1522   1.259       .  A
O1513     Al1520   1.910       .  S
O1514     Al1520   1.897       .  S
O1515      C1522   1.262       .  A
O1516     Al1520   1.780       .  S
O1517      C1518   1.261       .  A
C1518      C1617   1.483       .  S
C1519      C1605   1.475       .  S
C1522      C1728   1.482       .  S
C1523      O1524   1.277       .  A
C1523      C1584   1.485       .  S
O1525      C1540   1.250       .  A
O1525     Al1533   1.856       .  S
C1526      O1536   1.270       .  A
C1526      O1527   1.275       .  A
C1526      C1677   1.483       .  S
O1527     Al1529   1.936       .  S
O1528      C1530   1.254       .  A
O1528     Al1529   1.852       .  S
Al1529     O1537   1.908       .  S
Al1529     O1539   1.932       .  S
Al1529     O1538   1.785       .  S
C1530      O1543   1.268       .  A
C1530      C1572   1.471       .  S
O1531      C1541   1.251       .  A
O1531     Al1533   1.908       .  S
O1532      C1545   1.272       .  A
O1532     Al1542   1.886       .  S
Al1533     O1546   1.932       .  S
Al1533     O1543   1.923       .  S
Al1533     O1538   1.775       .  S
O1534      C1541   1.251       .  A
O1534     Al1542   1.897       .  S
O1535      C1544   1.257       .  A
O1535     Al1542   1.911       .  S
O1536     Al1542   1.891       .  S
O1537      C1544   1.259       .  A
O1538     Al1542   1.781       .  S
O1539      C1540   1.262       .  A
C1541      C1620   1.475   1_455  S
C1544      C1701   1.483       .  S
C1545      O1546   1.278       .  A
C1545      C1668   1.480       .  S
O1547      C1562   1.274       .  A
O1547     Al1555   1.927       .  S
C1548      O1558   1.272       .  A
C1548      O1549   1.269       .  A
C1548      C1581   1.483   1_556  S
O1549     Al1551   1.900       .  S
O1550      C1552   1.252   1_655  A
O1550     Al1551   1.896       .  S
Al1551     O1559   1.911       .  S
Al1551     O1561   1.889       .  S
Al1551     O1560   1.778       .  S
C1552      O1565   1.252       .  A
C1552      C1644   1.472       .  S
O1553      C1563   1.268       .  A
O1553     Al1555   1.926       .  S
O1554      C1567   1.262       .  A
O1554     Al1564   1.933       .  S
Al1555     O1568   1.860       .  S
Al1555     O1565   1.906   1_655  S
Al1555     O1560   1.775       .  S
O1556      C1563   1.255       .  A
O1556     Al1564   1.855       .  S
O1557      C1566   1.263       .  A
O1557     Al1564   1.915       .  S
O1558     Al1564   1.931       .  S
O1559      C1566   1.259       .  A
O1560     Al1564   1.785       .  S
O1561      C1562   1.271       .  A
C1562      C1593   1.482       .  S
C1563      C1569   1.474       .  S
C1566      C1692   1.486       .  S
C1567      O1568   1.251       .  A
C1570      H1575   1.084       .  S
C1571      C1572   1.403   1_655  A
C1571      O1576   1.372       .  S
C1572      C1573   1.409       .  A
C1581      C1586   1.411       .  A
C1582      C1583   1.398       .  A
C1583      C1584   1.413       .  A
C1583      O1588   1.372       .  S
C1584      C1585   1.406       .  A
C1585      H1589   1.083       .  S
C1586      O1590   1.371   1_554  S
O1588      H1592   0.992       .  S
O1590      H1591   0.992       .  S
C1593      C1594   1.405       .  A
C1593      C1598   1.414       .  A
C1594      C1595   1.396       .  A
C1594      H1599   1.084       .  S
C1595      C1596   1.411       .  A
C1595      O1600   1.372       .  S
C1596      C1597   1.404       .  A
C1597      C1598   1.398       .  A
C1597      H1601   1.084       .  S
C1598      O1602   1.372       .  S
O1600      H1604   0.992       .  S
O1602      H1603   0.992       .  S
C1605      C1606   1.400       .  A
C1605      C1610   1.410       .  A
C1606      C1607   1.399       .  A
C1606      H1611   1.084       .  S
C1607      C1608   1.413       .  A
C1607      O1612   1.372       .  S
C1608      C1609   1.405       .  A
C1609      C1610   1.406       .  A
C1609      H1613   1.084       .  S
C1610      O1614   1.371       .  S
O1612      H1616   0.992       .  S
O1614      H1615   0.991       .  S
C1617      C1618   1.406       .  A
C1617      C1622   1.411       .  A
C1618      C1619   1.397       .  A
C1618      H1623   1.084       .  S
C1619      C1620   1.403       .  A
C1619      O1624   1.370       .  S
C1620      C1621   1.405       .  A
C1621      C1622   1.407       .  A
C1621      H1625   1.084       .  S
C1622      O1626   1.372       .  S
O1624      H1628   0.992       .  S
O1626      H1627   0.993       .  S
C1629      C1630   1.410       .  A
C1629      C1634   1.404   1_455  A
C1630      C1631   1.398       .  A
C1630      H1635   1.084       .  S
C1631      C1632   1.404   1_455  A
C1631      O1636   1.372       .  S
C1632      C1633   1.410       .  A
C1633      C1634   1.397       .  A
C1633      H1637   1.084       .  S
C1634      O1638   1.372       .  S
O1636      H1640   0.992       .  S
O1638      H1639   0.991       .  S
C1641      C1642   1.405       .  A
C1641      C1646   1.414       .  A
C1642      C1643   1.405       .  A
C1642      H1647   1.084       .  S
C1643      C1644   1.410       .  A
C1643      O1648   1.372       .  S
C1644      C1645   1.399       .  A
C1645      C1646   1.398       .  A
C1645      H1649   1.084       .  S
C1646      O1650   1.372       .  S
O1648      H1652   0.992       .  S
O1650      H1651   0.992       .  S
C1653      C1654   1.405       .  A
C1653      C1658   1.403       .  A
C1654      C1655   1.407       .  A
C1654      H1659   1.084       .  S
C1655      C1656   1.411       .  A
C1655      O1660   1.371       .  S
C1656      C1657   1.408       .  A
C1657      C1658   1.398       .  A
C1657      H1661   1.084       .  S
C1658      O1662   1.372       .  S
O1660      H1664   0.991       .  S
O1662      H1663   0.992   1_655  S
C1665      C1666   1.406       .  A
C1665      C1670   1.411       .  A
C1666      C1667   1.396       .  A
C1666      H1671   1.083       .  S
C1667      C1668   1.410       .  A
C1667      O1672   1.372       .  S
C1668      C1669   1.406       .  A
C1669      C1670   1.398       .  A
C1669      H1673   1.083       .  S
C1670      O1674   1.371       .  S
O1672      H1676   0.992       .  S
O1674      H1675   0.992       .  S
C1677      C1678   1.404       .  A
C1677      C1682   1.411       .  A
C1678      H1683   1.083       .  S
C1679      C1680   1.413       .  A
C1679      O1684   1.372       .  S
C1680      C1681   1.403       .  A
C1681      H1685   1.083       .  S
C1682      O1686   1.369       .  S
O1684      H1688   0.992       .  S
C1689      C1690   1.402       .  A
C1689      C1694   1.415       .  A
C1690      C1691   1.401       .  A
C1690      H1695   1.084       .  S
C1691      C1692   1.416       .  A
C1691      O1696   1.372       .  S
C1692      C1693   1.401       .  A
C1693      C1694   1.399       .  A
C1693      H1697   1.083       .  S
C1694      O1698   1.372       .  S
O1696      H1700   0.992       .  S
O1698      H1699   0.991       .  S
C1701      C1702   1.410       .  A
C1701      C1706   1.407       .  A
C1702      C1703   1.400       .  A
C1702      H1707   1.083       .  S
C1703      C1704   1.408       .  A
C1703      O1708   1.372       .  S
C1704      C1705   1.408       .  A
C1705      C1706   1.398       .  A
C1705      H1709   1.083       .  S
C1706      O1710   1.371       .  S
O1708      H1712   0.992       .  S
O1710      H1711   0.992       .  S
C1713      C1714   1.411       .  A
C1713      C1718   1.404       .  A
C1714      C1715   1.397       .  A
C1714      H1719   1.083       .  S
C1715      C1716   1.403       .  A
C1715      O1720   1.372       .  S
C1716      C1717   1.412       .  A
C1717      C1718   1.398       .  A
C1717      H1721   1.083       .  S
C1718      O1722   1.372       .  S
O1720      H1724   0.992       .  S
O1722      H1723   0.992       .  S
C1725      C1726   1.402       .  A
C1725      C1730   1.414       .  A
C1726      C1727   1.399       .  A
C1726      H1731   1.084       .  S
C1727      C1728   1.415       .  A
C1727      O1732   1.372       .  S
C1728      C1729   1.402       .  A
C1729      C1730   1.399       .  A
C1729      H1733   1.083       .  S
C1730      O1734   1.372       .  S
O1732      H1736   0.992       .  S
O1734      H1735   0.991       .  S
C1737      C1738   1.404       .  A
C1737      C1742   1.412       .  A
C1738      C1739   1.398       .  A
C1738      H1743   1.083       .  S
C1739      C1740   1.412       .  A
C1739      O1744   1.370       .  S
C1740      C1741   1.406       .  A
C1741      C1742   1.399       .  A
C1741      H1745   1.083       .  S
C1742      O1746   1.372       .  S
O1744      H1748   0.992       .  S
O1746      H1747   0.992       .  S
C1749      C1750   1.406       .  A
C1749      C1754   1.412       .  A
C1750      H1755   1.083       .  S
C1751      C1752   1.412       .  A
C1751      O1756   1.372       .  S
C1752      C1753   1.405       .  A
C1753      H1757   1.084       .  S
C1754      O1758   1.371       .  S
O1756      H1760   0.992       .  S
O1758      H1759   0.992       .  S
C1761      C1762   1.404       .  A
C1761      C1766   1.403       .  A
C1762      C1763   1.405       .  A
C1762      H1767   1.084       .  S
C1763      C1764   1.411       .  A
C1763      O1768   1.371       .  S
C1764      C1765   1.408       .  A
C1765      C1766   1.399       .  A
C1765      H1769   1.084       .  S
C1766      O1770   1.372       .  S
O1768      H1772   0.992       .  S
O1770      H1771   0.992       .  S
C1773      C1774   1.399       .  A
C1773      C1778   1.409       .  A
C1774      C1775   1.399       .  A
C1774      H1779   1.084       .  S
C1775      C1776   1.414       .  A
C1775      O1780   1.372       .  S
C1776      C1777   1.406       .  A
C1777      C1778   1.404       .  A
C1777      H1781   1.084       .  S
C1778      O1782   1.372       .  S
O1780      H1784   0.992   1_565  S
O1782      H1783   0.992       .  S
C1785      C1786   1.403       .  A
C1785      C1790   1.415       .  A
C1786      C1787   1.400       .  A
C1786      H1791   1.084       .  S
C1787      C1788   1.415       .  A
C1787      O1792   1.372       .  S
C1788      C1789   1.400       .  A
C1789      C1790   1.396       .  A
C1789      H1793   1.083       .  S
C1790      O1794   1.372       .  S
O1792      H1796   0.992       .  S
O1794      H1795   0.992       .  S
C1797      C1802   1.403       .  A
C1798      C1799   1.398       .  A
C1798      H1803   1.084       .  S
C1799      O1804   1.372       .  S
C1800      C1801   1.413       .  A
C1801      H1805   1.084       .  S
C1802      O1806   1.372       .  S
O1804      H1808   0.992   1_565  S
C1809      C1810   1.407       .  A
C1809      C1814   1.410       .  A
C1810      C1811   1.398       .  A
C1811      C1812   1.404       .  A
C1811      O1816   1.370       .  S
C1812      C1813   1.404       .  A
C1813      C1814   1.405       .  A
C1813      H1817   1.084       .  S
C1814      O1818   1.372       .  S
O1818      H1819   0.993       .  S
C1821      C1822   1.409       .  A
C1821      C1826   1.411       .  A
C1822      C1823   1.398       .  A
C1822      H1827   1.084       .  S
C1823      C1824   1.404       .  A
C1823      O1828   1.371       .  S
C1824      C1825   1.404       .  A
C1825      C1826   1.406       .  A
C1825      H1829   1.084       .  S
C1826      O1830   1.372       .  S
O1828      H1832   0.992       .  S
O1830      H1831   0.993       .  S
C1833      C1834   1.406       .  A
C1833      C1838   1.412       .  A
C1834      C1835   1.398       .  A
C1834      H1839   1.083       .  S
C1835      C1836   1.411       .  A
C1835      O1840   1.372       .  S
C1836      C1837   1.405       .  A
C1837      C1838   1.398       .  A
C1837      H1841   1.084       .  S
C1838      O1842   1.372       .  S
O1840      H1844   0.992       .  S
O1842      H1843   0.992       .  S
C1846      C1847   1.398       .  A
C1847      C1848   1.414       .  A
C1847      O1852   1.372       .  S
C1848      C1849   1.403       .  A
C1849      C1850   1.396       .  A
C1849      H1853   1.083       .  S
O1852      H1856   0.992       .  S
