geometry optimzed in LAMMPS
_audit_creation_date              2020-12-01 
_audit_creation_method            'lammps2cif' 
_symmetry_space_group_name_H-M    'P1' 
_symmetry_Int_Tables_number       1 
_symmetry_cell_setting            triclinic 
loop_ 
_symmetry_equiv_pos_as_xyz 
  x,y,z 
_cell_length_a                    93.34516737 
_cell_length_b                    37.78210516120997 
_cell_length_c                    45.60059865847055 
_cell_angle_alpha                 89.87688119990962 
_cell_angle_beta                  89.89897005539056 
_cell_angle_gamma                 89.86940686367312 
loop_ 
_atom_site_label 
_atom_site_type_symbol 
_atom_site_fract_x 
_atom_site_fract_y 
_atom_site_fract_z 
_atom_site_charge 
Fe1        Fe  0.80063666  0.77291067  0.71893055     1.65800
Fe2        Fe  0.79473415  0.85855682  0.70448924     1.73200
Fe3        Fe  0.76841597  0.79948822  0.69277382     1.54400
O4          O  0.77441782  0.75081863  0.67403466    -0.81000
O5          O  0.77853988  0.87294768  0.73152653    -0.79300
O6          O  0.79790753  0.74399240  0.68123311    -0.83500
O7          O  0.78417415  0.74457098  0.73991298    -0.78300
O8          O  0.77112457  0.82432036  0.65260475    -0.80100
O9          O  0.80737132  0.85330457  0.74199435    -0.82900
C10         C  0.77105548  0.75100596  0.74587487     0.97900
C11         C  0.78614353  0.73391773  0.66998192     1.05300
O12         O  0.78797283  0.81004272  0.70479868    -1.11800
O13         O  0.81159223  0.84597352  0.67791677    -0.74300
O14         O  0.81906961  0.79741735  0.70094750    -0.77800
O15         O  0.76404095  0.77478861  0.73227579    -0.78400
C16         C  0.82149723  0.82451134  0.68476594     0.96800
O17         O  0.80343304  0.79874994  0.75782198    -0.76400
O18         O  0.78263207  0.87239351  0.66766313    -0.81600
C19         C  0.76529476  0.87107172  0.72615147     0.99400
C20         C  0.77472582  0.85653418  0.64914462     1.05400
O21         O  0.76002441  0.84689864  0.70994387    -0.77200
C22         C  0.80704821  0.83048181  0.76250638     1.03700
Fe23       Fe  0.94331303  0.96056752  0.71727567     1.65800
Fe24       Fe  0.94876526  0.87635078  0.69829165     1.73200
Fe25       Fe  0.97579007  0.93463981  0.69131394     1.54400
O26         O  0.96992363  0.98355581  0.67342733    -0.81000
O27         O  0.96444844  0.85858821  0.72474504    -0.79300
O28         O  0.94635632  0.99020367  0.68042483    -0.83500
O29         O  0.95976689  0.98786889  0.73909113    -0.78300
O30         O  0.97385527  0.91228745  0.65048586    -0.80100
O31         O  0.93609657  0.87962850  0.73592235    -0.82900
C32         C  0.97292339  0.98138438  0.74452476     0.97900
C33         C  0.95815449  0.00016140  0.66928705     1.05300
O34         O  0.95601123  0.92403485  0.70200414    -1.11800
O35         O  0.93237319  0.89246201  0.67199042    -0.74300
O36         O  0.92476118  0.93765569  0.69873610    -0.77800
O37         O  0.97984040  0.95755836  0.73105304    -0.78400
C38         C  0.92235192  0.91233445  0.68084370     0.96800
O39         O  0.94001115  0.93289066  0.75502698    -0.76400
O40         O  0.96090388  0.86463997  0.66101267    -0.81600
C41         C  0.97787531  0.86182453  0.72270275     0.99400
C42         C  0.96957901  0.88131832  0.64447448     1.05400
O43         O  0.98379416  0.88680451  0.70827493    -0.77200
C44         C  0.93596004  0.90108650  0.75739317     1.03700
Fe45       Fe  0.79455849  0.96451390  0.01509948     1.65800
Fe46       Fe  0.78898595  0.87895159  0.02941598     1.73200
Fe47       Fe  0.76354901  0.93848584  0.04658222     1.54400
O48         O  0.77039053  0.98656199  0.06388602    -0.81000
O49         O  0.77142741  0.86557544  0.00542517    -0.79300
O50         O  0.79371538  0.99101079  0.05414576    -0.83500
O51         O  0.77727547  0.99383103  0.99860079    -0.78300
O52         O  0.76825319  0.91419809  0.08581985    -0.80100
O53         O  0.79996809  0.88520733  0.98975983    -0.82900
C54         C  0.76399066  0.98766736  0.99454565     0.97900
C55         C  0.78250045  0.00147980  0.06735232     1.05300
O56         O  0.78242120  0.92744788  0.03071038    -1.11800
O57         O  0.80719785  0.89060370  0.05252522    -0.74300
O58         O  0.81361276  0.93931916  0.02849723    -0.77800
O59         O  0.75745563  0.96317114  0.00820596    -0.78400
C60         C  0.81676931  0.91205114  0.04383071     0.96800
O61         O  0.79582466  0.94035826  0.97508604    -0.76400
O62         O  0.77843541  0.86517814  0.06869413    -0.81600
C63         C  0.75879648  0.86652122  0.01536746     0.99400
C64         C  0.77142909  0.88165383  0.08855897     1.05400
O65         O  0.75441498  0.89108432  0.03223283    -0.77200
C66         C  0.79990219  0.90899299  0.96992810     1.03700
Fe67       Fe  0.93997942  0.77148998  0.00963342     1.65800
Fe68       Fe  0.94640913  0.85678470  0.02403608     1.73200
Fe69       Fe  0.97217341  0.79647945  0.03600730     1.54400
O70         O  0.96586531  0.74757613  0.05375953    -0.81000
O71         O  0.96287938  0.87078108  0.99727702    -0.79300
O72         O  0.94219475  0.74390348  0.04808441    -0.83500
O73         O  0.95653949  0.74182178  0.98986359    -0.78300
O74         O  0.96927795  0.82010074  0.07619600    -0.80100
O75         O  0.93410614  0.85168001  0.98621862    -0.82900
C76         C  0.96962140  0.74838760  0.98356882     0.97900
C77         C  0.95388504  0.73231586  0.05866450     1.05300
O78         O  0.95279947  0.80808118  0.02368810    -1.11800
O79         O  0.92928136  0.84463270  0.05000052    -0.74300
O80         O  0.92147602  0.79742652  0.02596394    -0.77800
O81         O  0.97650119  0.77294395  0.99626569    -0.78400
C82         C  0.91912296  0.82494395  0.04161118     0.96800
O83         O  0.93752960  0.79669123  0.97039180    -0.76400
O84         O  0.95843835  0.86958701  0.06145843    -0.81600
C85         C  0.97581464  0.86971827  0.00514676     0.99400
C86         C  0.96627983  0.85268195  0.07965328     1.05400
O87         O  0.98079413  0.84447771  0.02073312    -0.77200
C88         C  0.93389616  0.82854633  0.96598394     1.03700
Fe89       Fe  0.04971671  0.52172309  0.76130619     1.65800
Fe90       Fe  0.04233141  0.60754849  0.77304630     1.73200
Fe91       Fe  0.01683239  0.54683531  0.78443987     1.54400
O92         O  0.01350923  0.52303851  0.74434927    -0.81000
O93         O  0.02980172  0.62023891  0.81008819    -0.79300
O94         O  0.03356701  0.49096397  0.74147423    -0.83500
O95         O  0.04672499  0.49463092  0.80023697    -0.78300
O96         O  0.00803011  0.59404826  0.76889375    -0.80100
O97         O  0.05953899  0.59765163  0.79973698    -0.82900
C98         C  0.03465500  0.48311256  0.80910629     0.97900
C99         C  0.02064288  0.49731198  0.73384438     1.05300
O100        O  0.03642993  0.55856056  0.77355919    -1.11800
O101        O  0.05494554  0.60210297  0.73560877    -0.74300
O102        O  0.05300414  0.54604701  0.72128126    -0.77800
O103        O  0.02292501  0.49845977  0.80249456    -0.78400
C104        C  0.05588871  0.57827834  0.71600256     0.96800
O105        O  0.06770279  0.54842588  0.77880609    -0.76400
O106        O  0.02594984  0.61974321  0.74532515    -0.81600
C107        C  0.02186419  0.60348428  0.82831289     0.99400
C108        C  0.01301087  0.61894026  0.75318187     1.05400
O109        O  0.01893093  0.57087463  0.82479804    -0.77200
C110        C  0.06974372  0.57658628  0.79383417     1.03700
Fe111      Fe  0.19308387  0.71321250  0.76499084     1.65800
Fe112      Fe  0.19864505  0.62745510  0.77922855     1.73200
Fe113      Fe  0.22452563  0.68615669  0.79330933     1.54400
O114        O  0.22983548  0.70779067  0.75318755    -0.81000
O115        O  0.20974168  0.61487235  0.81825222    -0.79300
O116        O  0.21043021  0.74150297  0.74673754    -0.83500
O117        O  0.19499014  0.74050533  0.80355757    -0.78300
O118        O  0.23302004  0.63698904  0.78055705    -0.80100
O119        O  0.18094035  0.63967309  0.80366593    -0.82900
C120        C  0.20669289  0.75182156  0.81408170     0.97900
C121        C  0.22346725  0.73363501  0.74092201     1.05300
O122        O  0.20527688  0.67576231  0.77967955    -1.11800
O123        O  0.18718535  0.63305699  0.74001811    -0.74300
O124        O  0.19096342  0.68836385  0.72534707    -0.77800
O125        O  0.21859890  0.73616788  0.80919554    -0.78400
C126        C  0.18733841  0.65670940  0.72005235     0.96800
O127        O  0.17411038  0.68901531  0.78091874    -0.76400
O128        O  0.21570367  0.61346349  0.75392555    -0.81600
C129        C  0.21682996  0.63212930  0.83751671     0.99400
C130        C  0.22824069  0.61263799  0.76404403     1.05400
O131        O  0.22015131  0.66441888  0.83365746    -0.77200
C132        C  0.17129691  0.66184088  0.79676914     1.03700
Fe133      Fe  0.04957450  0.70961393  0.46449841     1.65800
Fe134      Fe  0.04409334  0.62478382  0.44792564     1.73200
Fe135      Fe  0.01685255  0.68282671  0.44119942     1.54400
O136        O  0.01349104  0.70712151  0.48107536    -0.81000
O137        O  0.03147205  0.61175633  0.41170880    -0.79300
O138        O  0.03344130  0.73869571  0.48549381    -0.83500
O139        O  0.04613933  0.73825709  0.42687973    -0.78300
O140        O  0.00924999  0.63529176  0.46013452    -0.80100
O141        O  0.06001277  0.64013478  0.42015043    -0.82900
C142        C  0.03415603  0.74846412  0.41651788     0.97900
C143        C  0.02049420  0.73228070  0.49246399     1.05300
O144        O  0.03677376  0.67260643  0.45077923    -1.11800
O145        O  0.05728644  0.62930387  0.48480191    -0.74300
O146        O  0.05312540  0.68281436  0.50320229    -0.77800
O147        O  0.02245512  0.73170728  0.42152264    -0.78400
C148        C  0.05731594  0.65100159  0.50615426     0.96800
O149        O  0.06786524  0.68560306  0.44606396    -0.76400
O150        O  0.02891705  0.60772409  0.47580053    -0.81600
C151        C  0.02257786  0.62743512  0.39495242     0.99400
C152        C  0.01546494  0.61066089  0.47462792     1.05400
O153        O  0.01811923  0.65854311  0.40051948    -0.77200
C154        C  0.07010512  0.65993777  0.42843712     1.03700
Fe155      Fe  0.19235376  0.52596941  0.46510466     1.65800
Fe156      Fe  0.19788800  0.61173836  0.45069622     1.73200
Fe157      Fe  0.22384526  0.55260880  0.43533398     1.54400
O158        O  0.22945001  0.52724420  0.47395752    -0.81000
O159        O  0.20907965  0.62590168  0.41260322    -0.79300
O160        O  0.20934006  0.49810533  0.48429870    -0.83500
O161        O  0.19444123  0.49770256  0.42712749    -0.78300
O162        O  0.23242728  0.59947901  0.45117258    -0.80100
O163        O  0.18046274  0.59906031  0.42581986    -0.82900
C164        C  0.20594965  0.48789896  0.41465853     0.97900
C165        C  0.22268076  0.50358314  0.48822481     1.05300
O166        O  0.20466827  0.56320770  0.45007440    -1.11800
O167        O  0.18608624  0.60627521  0.48937562    -0.74300
O168        O  0.18983205  0.55127848  0.50449200    -0.77800
O169        O  0.21767699  0.50461278  0.41744573    -0.78400
C170        C  0.18610199  0.58294215  0.50949945     0.96800
O171        O  0.17362202  0.54953595  0.44827272    -0.76400
O172        O  0.21486269  0.62604168  0.47594502    -0.81600
C173        C  0.21641784  0.61009632  0.39296912     0.99400
C174        C  0.22779418  0.62388028  0.46785917     1.05400
O175        O  0.21989852  0.57766178  0.39560191    -0.77200
C176        C  0.17093424  0.57637069  0.43204763     1.03700
Fe177      Fe  0.69252328  0.21617794  0.76576510     1.65800
Fe178      Fe  0.69581389  0.13031464  0.78221770     1.73200
Fe179      Fe  0.72346092  0.18507421  0.79316985     1.54400
O180        O  0.72887946  0.20590380  0.75263685    -0.81000
O181        O  0.70688607  0.11678185  0.82049497    -0.79300
O182        O  0.71026272  0.24222065  0.74694818    -0.83500
O183        O  0.69519800  0.24404706  0.80392079    -0.78300
O184        O  0.73045117  0.13484674  0.77970603    -0.80100
O185        O  0.67930660  0.14752443  0.80779221    -0.82900
C186        C  0.70730032  0.25360568  0.81385947     0.97900
C187        C  0.72305151  0.23271389  0.74065370     1.05300
O188        O  0.70391247  0.17729215  0.78070677    -1.11800
O189        O  0.68392028  0.13689811  0.74375205    -0.74300
O190        O  0.68989154  0.19016061  0.72699072    -0.77800
O191        O  0.71873751  0.23591051  0.80895027    -0.78400
C192        C  0.68519867  0.15909747  0.72286228     0.96800
O193        O  0.67311556  0.19468700  0.78159263    -0.76400
O194        O  0.71188970  0.11111575  0.75650139    -0.81600
C195        C  0.71460424  0.13312252  0.83910264     0.99400
C196        C  0.72483077  0.11036065  0.76440885     1.05400
O197        O  0.71923961  0.16423203  0.83416498    -0.77200
C198        C  0.66993063  0.16912054  0.79880469     1.03700
Fe199      Fe  0.54948273  0.02102066  0.76488841     1.65800
Fe200      Fe  0.54475902  0.10626572  0.78162506     1.73200
Fe201      Fe  0.51792870  0.04863428  0.79178758     1.54400
O202        O  0.51328992  0.02775261  0.75116759    -0.81000
O203        O  0.53302718  0.11857312  0.81999915    -0.79300
O204        O  0.53237919  0.99289263  0.74649692    -0.83500
O205        O  0.54723910  0.99313866  0.80323768    -0.78300
O206        O  0.51011915  0.09773918  0.77799446    -0.80100
O207        O  0.56167631  0.09051130  0.80699861    -0.82900
C208        C  0.53527598  0.98233731  0.81312751     0.97900
C209        C  0.51956686  0.00131338  0.73977206     1.05300
O210        O  0.53743158  0.05858572  0.77992769    -1.11800
O211        O  0.55677151  0.10102661  0.74278491    -0.74300
O212        O  0.55161512  0.04736469  0.72591932    -0.77800
O213        O  0.52351184  0.99845812  0.80778661    -0.78400
C214        C  0.55584504  0.07885869  0.72177363     0.96800
O215        O  0.56845005  0.04427219  0.78036290    -0.76400
O216        O  0.52851454  0.12387648  0.75578627    -0.81600
C217        C  0.52488529  0.10161202  0.83772892     0.99400
C218        C  0.51546126  0.12279525  0.76287299     1.05400
O219        O  0.52123064  0.06977966  0.83279505    -0.77200
C220        C  0.57132351  0.06970316  0.79775487     1.03700
Fe221      Fe  0.69330731  0.02275839  0.47036857     1.65800
Fe222      Fe  0.69978876  0.10768807  0.45566222     1.73200
Fe223      Fe  0.72455150  0.04691534  0.43872266     1.54400
O224        O  0.73042141  0.02317051  0.47752589    -0.81000
O225        O  0.71061269  0.12030944  0.41684742    -0.79300
O226        O  0.71049612  0.99322743  0.48782734    -0.83500
O227        O  0.69413351  0.99514297  0.43182839    -0.78300
O228        O  0.73397779  0.09444105  0.45259370    -0.80100
O229        O  0.68190685  0.09686723  0.43180377    -0.82900
C230        C  0.70528248  0.98378237  0.41893694     0.97900
C231        C  0.72383768  0.99929037  0.49179851     1.05300
O232        O  0.70580168  0.05888196  0.45455920    -1.11800
O233        O  0.68843424  0.10279147  0.49481345    -0.74300
O234        O  0.69205257  0.04775785  0.51005411    -0.77800
O235        O  0.71747722  0.99847976  0.42209730    -0.78400
C236        C  0.68842144  0.07949369  0.51496724     0.96800
O237        O  0.67446702  0.04889256  0.45568766    -0.76400
O238        O  0.71727103  0.11992019  0.48014209    -0.81600
C239        C  0.71709287  0.10329287  0.39663519     0.99400
C240        C  0.72984765  0.11879746  0.46997757     1.05400
O241        O  0.71987366  0.07052299  0.39917110    -0.77200
C242        C  0.67194359  0.07626529  0.43984347     1.03700
Fe243      Fe  0.54863808  0.21786900  0.47029622     1.65800
Fe244      Fe  0.54412313  0.13181876  0.45548105     1.73200
Fe245      Fe  0.51734777  0.18874327  0.44253761     1.54400
O246        O  0.51200125  0.21049702  0.48237871    -0.81000
O247        O  0.53306369  0.11845352  0.41668088    -0.79300
O248        O  0.53110062  0.24461218  0.48959865    -0.83500
O249        O  0.54607551  0.24564272  0.43174363    -0.78300
O250        O  0.50958810  0.13978412  0.45650736    -0.80100
O251        O  0.56122485  0.14638647  0.43045524    -0.82900
C252        C  0.53406914  0.25551132  0.42144540     0.97900
C253        C  0.51811564  0.23613398  0.49526780     1.05300
O254        O  0.53677579  0.17962705  0.45579055    -1.11800
O255        O  0.55581611  0.13798837  0.49439364    -0.74300
O256        O  0.55147004  0.19276411  0.50966768    -0.77800
O257        O  0.52249905  0.23871845  0.42641936    -0.78400
C258        C  0.55566074  0.16138803  0.51452224     0.96800
O259        O  0.56785376  0.19491009  0.45420016    -0.76400
O260        O  0.52756310  0.11522898  0.48106320    -0.81600
C261        C  0.52557812  0.13515644  0.39764247     0.99400
C262        C  0.51468817  0.11545016  0.47274663     1.05400
O263        O  0.52150378  0.16687891  0.40197322    -0.77200
C264        C  0.57083272  0.16794589  0.43832931     1.03700
Fe265      Fe  0.68987763  0.70899321  0.26457176     1.65800
Fe266      Fe  0.69696977  0.62355912  0.27867596     1.73200
Fe267      Fe  0.72171259  0.68488167  0.29467206     1.54400
O268        O  0.72698197  0.70999592  0.25588366    -0.81000
O269        O  0.70827966  0.61063263  0.31702943    -0.79300
O270        O  0.70656689  0.73790269  0.24505152    -0.83500
O271        O  0.69141646  0.73811107  0.30228567    -0.78300
O272        O  0.73122363  0.63794661  0.27969107    -0.80100
O273        O  0.67914133  0.63400670  0.30328287    -0.82900
C274        C  0.70273043  0.74901487  0.31466118     0.97900
C275        C  0.71999789  0.73303719  0.24131711     1.05300
O276        O  0.70276472  0.67275434  0.27969225    -1.11800
O277        O  0.68518113  0.62804986  0.23991446    -0.74300
O278        O  0.68757745  0.68363927  0.22520778    -0.77800
O279        O  0.71469777  0.73295520  0.31215240    -0.78400
C280        C  0.68427626  0.65178548  0.22017262     0.96800
O281        O  0.67153082  0.68358897  0.28172340    -0.76400
O282        O  0.71436978  0.61130026  0.25351022    -0.81600
C283        C  0.71525198  0.62703948  0.33682762     0.99400
C284        C  0.72706265  0.61304158  0.26297634     1.05400
O285        O  0.71795516  0.65993047  0.33443351    -0.77200
C286        C  0.66924762  0.65599737  0.29739036     1.03700
Fe287      Fe  0.54767452  0.52159679  0.26478260     1.65800
Fe288      Fe  0.54391152  0.60744693  0.27899842     1.73200
Fe289      Fe  0.51552453  0.55340242  0.28634742     1.54400
O290        O  0.51193474  0.52893043  0.24707737    -0.81000
O291        O  0.53123380  0.62339150  0.31480063    -0.79300
O292        O  0.53103693  0.49406842  0.24412653    -0.83500
O293        O  0.54372641  0.49590723  0.30333726    -0.78300
O294        O  0.50896517  0.60118783  0.26644144    -0.80100
O295        O  0.55942064  0.59095427  0.30742746    -0.82900
C296        C  0.53148894  0.48771671  0.31352096     0.97900
C297        C  0.51842827  0.50265156  0.23611741     1.05300
O298        O  0.53563814  0.56071282  0.27720703    -1.11800
O299        O  0.55710459  0.59927615  0.24216869    -0.74300
O300        O  0.55138353  0.54598501  0.22563069    -0.77800
O301        O  0.52003583  0.50462931  0.30684585    -0.78400
C302        C  0.55611919  0.57692280  0.22130747     0.96800
O303        O  0.56646574  0.54373491  0.28257166    -0.76400
O304        O  0.52923411  0.62545274  0.25042955    -0.81600
C305        C  0.52194151  0.60884807  0.33147424     0.99400
C306        C  0.51573447  0.62418088  0.25124399     1.05400
O307        O  0.51720307  0.57803344  0.32636700    -0.77200
C308        C  0.56912701  0.56935833  0.29993430     1.03700
Fe309      Fe  0.69345509  0.52075448  0.96901833     1.65800
Fe310      Fe  0.69811571  0.60719482  0.95789146     1.73200
Fe311      Fe  0.72578964  0.55169178  0.94815626     1.54400
O312        O  0.72922763  0.52621560  0.98729416    -0.81000
O313        O  0.71120796  0.62404510  0.92277493    -0.79300
O314        O  0.70999892  0.49175126  0.98943479    -0.83500
O315        O  0.69735900  0.49624415  0.92976754    -0.78300
O316        O  0.73274019  0.59924137  0.96764110    -0.80100
O317        O  0.68247840  0.59363494  0.92885727    -0.82900
C318        C  0.70962025  0.48732048  0.92014812     0.97900
C319        C  0.72265969  0.49963015  0.99770303     1.05300
O320        O  0.70578956  0.55974216  0.95788013    -1.11800
O321        O  0.68446463  0.59819077  0.99383600    -0.74300
O322        O  0.68941316  0.54357013  0.00879330    -0.77800
O323        O  0.72112746  0.50327814  0.92756402    -0.78400
C324        C  0.68460334  0.57438118  0.01371181     0.96800
O325        O  0.67498381  0.54494395  0.95132861    -0.76400
O326        O  0.71300124  0.62191028  0.98746051    -0.81600
C327        C  0.71993223  0.60927202  0.90493862     0.99400
C328        C  0.72641080  0.62180573  0.98400401     1.05400
O329        O  0.72389122  0.57733269  0.90838950    -0.77200
C330        C  0.67256979  0.57215693  0.93535110     1.03700
Fe331      Fe  0.54925332  0.70945416  0.96575438     1.65800
Fe332      Fe  0.54432195  0.62326906  0.95328367     1.73200
Fe333      Fe  0.51777975  0.68048957  0.93934565     1.54400
O334        O  0.51279340  0.70278653  0.97936049    -0.81000
O335        O  0.53290325  0.60919362  0.91527456    -0.79300
O336        O  0.53195614  0.73720962  0.98452169    -0.83500
O337        O  0.54677350  0.73589610  0.92657471    -0.78300
O338        O  0.50995675  0.63131025  0.95316939    -0.80100
O339        O  0.56149508  0.63591326  0.92773957    -0.82900
C340        C  0.53475755  0.74631154  0.91669010     0.97900
C341        C  0.51917018  0.72852598  0.99161767     1.05300
O342        O  0.53725282  0.67123400  0.95219101    -1.11800
O343        O  0.55616523  0.63027221  0.99177610    -0.74300
O344        O  0.55177316  0.68553210  0.00565699    -0.77800
O345        O  0.52308224  0.73030241  0.92257070    -0.78400
C346        C  0.55561024  0.65413023  0.01145034     0.96800
O347        O  0.56823243  0.68535231  0.95012146    -0.76400
O348        O  0.52768808  0.60917140  0.97952885    -0.81600
C349        C  0.52529910  0.62529869  0.89609308     0.99400
C350        C  0.51521105  0.60701723  0.96925735     1.05400
O351        O  0.52180265  0.65768621  0.89913056    -0.77200
C352        C  0.57111015  0.65783371  0.93485810     1.03700
Fe353      Fe  0.30169417  0.77550355  0.22057389     1.65800
Fe354      Fe  0.29768868  0.86271006  0.20880263     1.73200
Fe355      Fe  0.27112773  0.80713001  0.19096984     1.54400
O356        O  0.27647544  0.75812294  0.17275696    -0.81000
O357        O  0.28059197  0.87791504  0.23361101    -0.79300
O358        O  0.29969965  0.74961068  0.18122966    -0.83500
O359        O  0.28382296  0.74843039  0.23779580    -0.78300
O360        O  0.27621643  0.83190565  0.15191414    -0.80100
O361        O  0.30877612  0.85376464  0.24827905    -0.82900
C362        C  0.27073560  0.75681893  0.24249030     0.97900
C363        C  0.28806042  0.74084243  0.16882658     1.05300
O364        O  0.29025745  0.81496240  0.20644436    -1.11800
O365        O  0.31529687  0.84942750  0.18456406    -0.74300
O366        O  0.32114433  0.79832086  0.20586789    -0.77800
O367        O  0.26481760  0.78276562  0.22942025    -0.78400
C368        C  0.32446524  0.82582917  0.19086931     0.96800
O369        O  0.30404995  0.79823457  0.26108467    -0.76400
O370        O  0.28721591  0.87927824  0.16988717    -0.81600
C371        C  0.26804929  0.87904031  0.22336552     0.99400
C372        C  0.28000585  0.86414484  0.14962108     1.05400
O373        O  0.26324875  0.85538307  0.20622058    -0.77200
C374        C  0.30836423  0.82905557  0.26737580     1.03700
Fe375      Fe  0.44724660  0.96412272  0.21854324     1.65800
Fe376      Fe  0.45439652  0.87820466  0.20840698     1.73200
Fe377      Fe  0.47851773  0.93844759  0.18651403     1.54400
O378        O  0.47134339  0.98601312  0.16837762    -0.81000
O379        O  0.47248949  0.86968677  0.23203815    -0.79300
O380        O  0.44814303  0.99044832  0.17929712    -0.83500
O381        O  0.46443891  0.99365758  0.23539869    -0.78300
O382        O  0.47346828  0.91170399  0.14829017    -0.80100
O383        O  0.44399563  0.88483632  0.24834922    -0.82900
C384        C  0.47791879  0.98862843  0.23859939     0.97900
C385        C  0.45925923  0.00145961  0.16615724     1.05300
O386        O  0.45986802  0.92721171  0.20395758    -1.11800
O387        O  0.43573911  0.88565903  0.18591962    -0.74300
O388        O  0.42861604  0.93763468  0.20400704    -0.77800
O389        O  0.48470545  0.96508547  0.22412311    -0.78400
C390        C  0.42601630  0.90846229  0.19075929     0.96800
O391        O  0.44547154  0.94176006  0.25949638    -0.76400
O392        O  0.46443489  0.86328993  0.16906715    -0.81600
C393        C  0.48450944  0.86834626  0.21955741     0.99400
C394        C  0.47051650  0.87877866  0.14748712     1.05400
O395        O  0.48836120  0.89177624  0.20113413    -0.77200
C396        C  0.44303503  0.90998649  0.26668920     1.03700
Fe397      Fe  0.30051376  0.96337770  0.51568522     1.65800
Fe398      Fe  0.29791896  0.87897187  0.53632205     1.73200
Fe399      Fe  0.26887336  0.93240362  0.54070272     1.54400
O400        O  0.27311811  0.98255232  0.55863333    -0.81000
O401        O  0.28316768  0.85674795  0.51013880    -0.79300
O402        O  0.29654698  0.99252394  0.55237467    -0.83500
O403        O  0.28351639  0.98843506  0.49373752    -0.78300
O404        O  0.27086872  0.91047166  0.58184746    -0.80100
O405        O  0.31074064  0.88403101  0.49820688    -0.82900
C406        C  0.27070152  0.97977944  0.48743029     0.97900
C407        C  0.28442748  0.00085184  0.56315643     1.05300
O408        O  0.28898212  0.92495674  0.53121575    -1.11800
O409        O  0.31330331  0.89954896  0.56308441    -0.74300
O410        O  0.31966905  0.94394558  0.53413841    -0.77800
O411        O  0.26449783  0.95436018  0.50034947    -0.78400
C412        C  0.32269887  0.92051413  0.55336069     0.96800
O413        O  0.30435852  0.93541178  0.47837065    -0.76400
O414        O  0.28581441  0.86561638  0.57362596    -0.81600
C415        C  0.26965034  0.85826453  0.51092298     0.99400
C416        C  0.27608075  0.88058457  0.58887306     1.05400
O417        O  0.26280118  0.88315431  0.52369706    -0.77200
C418        C  0.30970486  0.90470374  0.47605006     1.03700
Fe419      Fe  0.44162750  0.77578902  0.51526941     1.65800
Fe420      Fe  0.44649752  0.85938894  0.53737157     1.73200
Fe421      Fe  0.47418951  0.80153152  0.54034184     1.54400
O422        O  0.46870938  0.75192176  0.55805532    -0.81000
O423        O  0.46197168  0.88047393  0.51211767    -0.79300
O424        O  0.44518283  0.74422972  0.55112360    -0.83500
O425        O  0.45789117  0.74927305  0.49220823    -0.78300
O426        O  0.47293396  0.82294866  0.58175193    -0.80100
O427        O  0.43404446  0.85813869  0.49920741    -0.82900
C428        C  0.47099501  0.75564804  0.48644973     0.97900
C429        C  0.45709770  0.73461673  0.56217876     1.05300
O430        O  0.45419763  0.81212633  0.53129293    -1.11800
O431        O  0.43027754  0.84094682  0.56320767    -0.74300
O432        O  0.42304558  0.79692847  0.53498340    -0.77800
O433        O  0.47787035  0.77947652  0.49987208    -0.78400
C434        C  0.42048156  0.82079630  0.55406319     0.96800
O435        O  0.43809054  0.80571930  0.47849211    -0.76400
O436        O  0.45845394  0.86904633  0.57510905    -0.81600
C437        C  0.47540751  0.87654897  0.51175233     0.99400
C438        C  0.46793360  0.85260760  0.58986165     1.05400
O439        O  0.48169397  0.85002687  0.52349264    -0.77200
C440        C  0.43432279  0.83793726  0.47684941     1.03700
Fe441      Fe  0.80047482  0.27128872  0.22014409     1.65800
Fe442      Fe  0.79507279  0.35699618  0.20833460     1.73200
Fe443      Fe  0.76835252  0.30048561  0.19683602     1.54400
O444        O  0.77360033  0.25120915  0.17799390    -0.81000
O445        O  0.77970615  0.37028652  0.23746663    -0.79300
O446        O  0.79733949  0.24669633  0.18122396    -0.83500
O447        O  0.78369300  0.24235850  0.24011705    -0.78300
O448        O  0.77119720  0.32411204  0.15678350    -0.80100
O449        O  0.80856642  0.34885875  0.24473914    -0.82900
C450        C  0.77084905  0.25049644  0.24736529     0.97900
C451        C  0.78541016  0.23556980  0.17195269     1.05300
O452        O  0.78800119  0.30937713  0.20805799    -1.11800
O453        O  0.81090551  0.34423985  0.17963913    -0.74300
O454        O  0.81888038  0.29594070  0.20221810    -0.77800
O455        O  0.76446588  0.27691274  0.23625367    -0.78400
C456        C  0.82089528  0.32266828  0.18537791     0.96800
O457        O  0.80389102  0.29422679  0.25980780    -0.76400
O458        O  0.78214809  0.37258794  0.17253266    -0.81600
C459        C  0.76651239  0.37139187  0.23167113     0.99400
C460        C  0.77444121  0.35645471  0.15364376     1.05400
O461        O  0.76073650  0.34893402  0.21442157    -0.77200
C462        C  0.80851432  0.32508747  0.26467188     1.03700
Fe463      Fe  0.94166756  0.45695640  0.21543665     1.65800
Fe464      Fe  0.94883736  0.37217427  0.19847324     1.73200
Fe465      Fe  0.97388726  0.43425456  0.18625632     1.54400
O466        O  0.96703861  0.48254199  0.16930656    -0.81000
O467        O  0.96595259  0.35760390  0.22343999    -0.79300
O468        O  0.94363239  0.48722157  0.17818557    -0.83500
O469        O  0.95813506  0.48558099  0.23602155    -0.78300
O470        O  0.97063121  0.41152558  0.14565516    -0.80100
O471        O  0.93706174  0.37447257  0.23706562    -0.82900
C472        C  0.97156997  0.48115631  0.24003929     0.97900
C473        C  0.95501391  0.49789718  0.16571618     1.05300
O474        O  0.95475579  0.42132555  0.19990435    -1.11800
O475        O  0.93118841  0.38434051  0.17395335    -0.74300
O476        O  0.92349366  0.43243168  0.19733417    -0.77800
O477        O  0.97868361  0.45801363  0.22585548    -0.78400
C478        C  0.92126147  0.40579904  0.18072812     0.96800
O479        O  0.93883031  0.42948005  0.25397235    -0.76400
O480        O  0.96016243  0.36162202  0.15987586    -0.81600
C481        C  0.97883614  0.36056359  0.21532797     0.99400
C482        C  0.96733264  0.37938856  0.14115769     1.05400
O483        O  0.98326891  0.38679810  0.20031113    -0.77200
C484        C  0.93588359  0.39700930  0.25756184     1.03700
Fe485      Fe  0.80041502  0.46061191  0.51361185     1.65800
Fe486      Fe  0.79594113  0.37551839  0.53147844     1.73200
Fe487      Fe  0.76839378  0.43250468  0.53942937     1.54400
O488        O  0.77395046  0.48184425  0.55787834    -0.81000
O489        O  0.78034198  0.35698537  0.50543836    -0.79300
O490        O  0.79753850  0.48920095  0.55133427    -0.83500
O491        O  0.78351439  0.48887581  0.49343652    -0.78300
O492        O  0.77066196  0.40926811  0.58005600    -0.80100
O493        O  0.80830540  0.38061209  0.49295908    -0.82900
C494        C  0.77049967  0.48159909  0.48736448     0.97900
C495        C  0.78559674  0.49896315  0.56226137     1.05300
O496        O  0.78819118  0.42299670  0.52859575    -1.11800
O497        O  0.81225423  0.39221721  0.55741977    -0.74300
O498        O  0.81956558  0.43718671  0.53012542    -0.77800
O499        O  0.76409105  0.45599658  0.49967244    -0.78400
C500        C  0.82224678  0.41115578  0.54729144     0.96800
O501        O  0.80311489  0.43390306  0.47515652    -0.76400
O502        O  0.78410228  0.36235499  0.56935461    -0.81600
C503        C  0.76690043  0.35943551  0.50763950     0.99400
C504        C  0.77517679  0.37834328  0.58596364     1.05400
O505        O  0.76077289  0.38423980  0.52203164    -0.77200
C506        C  0.80763217  0.40254849  0.47164012     1.03700
Fe507      Fe  0.94502091  0.26863352  0.50911626     1.65800
Fe508      Fe  0.95061440  0.35375993  0.52496874     1.73200
Fe509      Fe  0.97693170  0.29454631  0.53608619     1.54400
O510        O  0.97105925  0.24510724  0.55242023    -0.81000
O511        O  0.96722337  0.36900524  0.49901641    -0.79300
O512        O  0.94737515  0.24084283  0.54724293    -0.83500
O513        O  0.96190822  0.24028143  0.48967693    -0.78300
O514        O  0.97363949  0.31611956  0.57690371    -0.80100
O515        O  0.93870070  0.34914982  0.48631461    -0.82900
C516        C  0.97493267  0.24738075  0.48344331     0.97900
C517        C  0.95916990  0.22982439  0.55769393     1.05300
O518        O  0.95744665  0.30553453  0.52382474    -1.11800
O519        O  0.93320366  0.34050193  0.55008010    -0.74300
O520        O  0.92630404  0.29274075  0.52555888    -0.77800
O521        O  0.98156317  0.27260417  0.49581962    -0.78400
C522        C  0.92349500  0.31930283  0.54191839     0.96800
O523        O  0.94228330  0.29431887  0.47011990    -0.76400
O524        O  0.96217011  0.36535319  0.56354696    -0.81600
C525        C  0.98008581  0.36853759  0.50732321     0.99400
C526        C  0.96992130  0.34797243  0.58170977     1.05400
O527        O  0.98523590  0.34330740  0.52254725    -0.77200
C528        C  0.93823422  0.32596236  0.46606106     1.03700
Fe529      Fe  0.05044815  0.01950655  0.25668942     1.65800
Fe530      Fe  0.04533917  0.10468838  0.27208001     1.73200
Fe531      Fe  0.01792746  0.04784424  0.27920941     1.54400
O532        O  0.01457495  0.02455301  0.23907053    -0.81000
O533        O  0.03242091  0.11869263  0.30770523    -0.79300
O534        O  0.03406637  0.99087370  0.23574125    -0.83500
O535        O  0.04684601  0.99175437  0.29467744    -0.78300
O536        O  0.01069569  0.09597726  0.26066597    -0.80100
O537        O  0.06096367  0.08919733  0.30047113    -0.82900
C538        C  0.03475381  0.98182758  0.30467282     0.97900
C539        C  0.02135200  0.99883487  0.22786636     1.05300
O540        O  0.03786297  0.05714482  0.26988108    -1.11800
O541        O  0.05888300  0.09858183  0.23588763    -0.74300
O542        O  0.05381394  0.04563238  0.21786352    -0.77800
O543        O  0.02311306  0.99849958  0.29873103    -0.78400
C544        C  0.05826221  0.07705811  0.21447710     0.96800
O545        O  0.06897156  0.04340559  0.27496419    -0.76400
O546        O  0.03041210  0.12172340  0.24341665    -0.81600
C547        C  0.02375731  0.10281009  0.32486494     0.99400
C548        C  0.01695410  0.11986338  0.24543873     1.05400
O549        O  0.01952692  0.07148254  0.31983416    -0.77200
C550        C  0.07115346  0.06930865  0.29245095     1.03700
Fe551      Fe  0.19265383  0.21533249  0.26779751     1.65800
Fe552      Fe  0.19752192  0.12959357  0.28045994     1.73200
Fe553      Fe  0.22465268  0.18594093  0.29228047     1.54400
O554        O  0.22913555  0.21226347  0.25395695    -0.81000
O555        O  0.20990401  0.11294824  0.31646537    -0.79300
O556        O  0.20952543  0.24516863  0.24906218    -0.83500
O557        O  0.19536531  0.23950663  0.30710303    -0.78300
O558        O  0.23227280  0.13917783  0.27276718    -0.80100
O559        O  0.18135150  0.14333318  0.30831537    -0.82900
C560        C  0.20720006  0.24968113  0.31778930     0.97900
C561        C  0.22262699  0.23856169  0.24288211     1.05300
O562        O  0.20500950  0.17710139  0.28047697    -1.11800
O563        O  0.18460187  0.13822023  0.24347875    -0.74300
O564        O  0.18993932  0.19227920  0.22789870    -0.77800
O565        O  0.21903838  0.23378214  0.31261145    -0.78400
C566        C  0.18530495  0.16136477  0.22313104     0.96800
O567        O  0.17379614  0.19051653  0.28384458    -0.76400
O568        O  0.21305361  0.11482937  0.25231836    -0.81600
C569        C  0.21820903  0.12790610  0.33484415     0.99400
C570        C  0.22642868  0.11627848  0.25606779     1.05400
O571        O  0.22200264  0.15991663  0.33164288    -0.77200
C572        C  0.17132049  0.16381469  0.30041811     1.03700
Fe573      Fe  0.04990195  0.21525850  0.96217184     1.65800
Fe574      Fe  0.04678905  0.12866486  0.95025504     1.73200
Fe575      Fe  0.01831350  0.18193381  0.94072406     1.54400
O576        O  0.01420321  0.20709738  0.97976682    -0.81000
O577        O  0.03474984  0.11179556  0.91383181    -0.79300
O578        O  0.03261909  0.24410218  0.98002786    -0.83500
O579        O  0.04653893  0.23829419  0.92207657    -0.78300
O580        O  0.01174533  0.13328505  0.95948454    -0.80100
O581        O  0.06277509  0.14465885  0.92249714    -0.82900
C582        C  0.03421013  0.24701790  0.91264070     0.97900
C583        C  0.02003229  0.23555508  0.98835845     1.05300
O584        O  0.03828233  0.17522996  0.95068457    -1.11800
O585        O  0.05920407  0.13892252  0.98773383    -0.74300
O586        O  0.05288844  0.19294295  0.00242592    -0.77800
O587        O  0.02276665  0.23078531  0.92034332    -0.78400
C588        C  0.05775277  0.16225083  0.00779484     0.96800
O589        O  0.06924401  0.19214695  0.94739478    -0.76400
O590        O  0.03166844  0.11048797  0.97822910    -0.81600
C591        C  0.02565819  0.12626821  0.89662098     0.99400
C592        C  0.01829123  0.10951916  0.97434711     1.05400
O593        O  0.02091000  0.15729833  0.90108814    -0.77200
C594        C  0.07237084  0.16575454  0.93111835     1.03700
Fe595      Fe  0.19534457  0.02503310  0.97333968     1.65800
Fe596      Fe  0.19909824  0.10973501  0.95419999     1.73200
Fe597      Fe  0.22568099  0.05215091  0.93986589     1.54400
O598        O  0.23250874  0.03091102  0.97936651    -0.81000
O599        O  0.20958310  0.12210393  0.91485472    -0.79300
O600        O  0.21328582  0.99940929  0.99163337    -0.83500
O601        O  0.19664111  0.99469872  0.93632807    -0.78300
O602        O  0.23375999  0.10205234  0.95207162    -0.80100
O603        O  0.18158990  0.09378446  0.93088335    -0.82900
C604        C  0.20788709  0.98483913  0.92294173     0.97900
C605        C  0.22652955  0.00703831  0.99481018     1.05300
O606        O  0.20667751  0.06204070  0.95543994    -1.11800
O607        O  0.18789005  0.10552573  0.99383108    -0.74300
O608        O  0.19378030  0.05280746  0.01154684    -0.77800
O609        O  0.21968063  0.00183677  0.92473091    -0.78400
C610        C  0.18906589  0.08392410  0.01513694     0.96800
O611        O  0.17580859  0.04683782  0.95801294    -0.76400
O612        O  0.21614789  0.12693421  0.97782999    -0.81600
C613        C  0.21670850  0.10506514  0.89559565     0.99400
C614        C  0.22879915  0.12696914  0.96801533     1.05400
O615        O  0.22031610  0.07299820  0.89959156    -0.77200
C616        C  0.17241744  0.07180888  0.94026820     1.03700
Fe617      Fe  0.29719399  0.27396192  0.71610568     1.65800
Fe618      Fe  0.29167174  0.35930861  0.70104903     1.73200
Fe619      Fe  0.26505232  0.30111703  0.68987717     1.54400
O620        O  0.27118513  0.25287305  0.67069846    -0.81000
O621        O  0.27565526  0.37508546  0.72758461    -0.79300
O622        O  0.29477522  0.24654136  0.67784999    -0.83500
O623        O  0.28060599  0.24467073  0.73564113    -0.78300
O624        O  0.26759347  0.32588165  0.64984127    -0.80100
O625        O  0.30400566  0.35353628  0.73942811    -0.82900
C626        C  0.26747146  0.25111783  0.74131867     0.97900
C627        C  0.28300035  0.23630461  0.66677630     1.05300
O628        O  0.28459995  0.31126387  0.70191099    -1.11800
O629        O  0.30821309  0.34512359  0.67454136    -0.74300
O630        O  0.31596192  0.29865832  0.69965590    -0.77800
O631        O  0.26072999  0.27606485  0.72881704    -0.78400
C632        C  0.31830465  0.32516913  0.68283144     0.96800
O633        O  0.29939119  0.29919094  0.75532993    -0.76400
O634        O  0.27992358  0.37321344  0.66355539    -0.81600
C635        C  0.26229106  0.37169913  0.72464504     0.99400
C636        C  0.27187421  0.35728807  0.64527859     1.05400
O637        O  0.25671634  0.34797939  0.70835117    -0.77200
C638        C  0.30318921  0.33079709  0.76008435     1.03700
Fe639      Fe  0.44086664  0.46294614  0.72098481     1.65800
Fe640      Fe  0.44435929  0.37761574  0.70338993     1.73200
Fe641      Fe  0.47190200  0.43309748  0.69155987     1.54400
O642        O  0.46675373  0.48316997  0.67458645    -0.81000
O643        O  0.46052504  0.35925411  0.72856246    -0.79300
O644        O  0.44354437  0.49245519  0.68371299    -0.83500
O645        O  0.45839282  0.48791939  0.74088060    -0.78300
O646        O  0.46787191  0.41113322  0.65108392    -0.80100
O647        O  0.43241734  0.38313603  0.74224946    -0.82900
C648        C  0.47144878  0.47946943  0.74549720     0.97900
C649        C  0.45528496  0.50136323  0.67169295     1.05300
O650        O  0.45237184  0.42476967  0.70493598    -1.11800
O651        O  0.42760913  0.39454744  0.67837211    -0.74300
O652        O  0.42154274  0.44207711  0.70428340    -0.77800
O653        O  0.47758733  0.45501553  0.73113835    -0.78400
C654        C  0.41832778  0.41671003  0.68697251     0.96800
O655        O  0.43798689  0.43620671  0.75938790    -0.76400
O656        O  0.45559467  0.36378064  0.66515220    -0.81600
C657        C  0.47377795  0.36000791  0.72289430     0.99400
C658        C  0.46363969  0.37967024  0.64672386     1.05400
O659        O  0.47939600  0.38400140  0.70689790    -0.77200
C660        C  0.43311616  0.40532074  0.76321688     1.03700
Fe661      Fe  0.29922554  0.46512221  0.01509931     1.65800
Fe662      Fe  0.29377084  0.37987318  0.03197978     1.73200
Fe663      Fe  0.26764621  0.43958868  0.04478696     1.54400
O664        O  0.27417688  0.48862140  0.06206233    -0.81000
O665        O  0.27697307  0.36391310  0.00757944    -0.79300
O666        O  0.29755836  0.49415310  0.05275559    -0.83500
O667        O  0.28227339  0.49386722  0.99618192    -0.78300
O668        O  0.27116017  0.41624538  0.08499489    -0.80100
O669        O  0.30506494  0.38409922  0.99204205    -0.82900
C670        C  0.26898648  0.48782866  0.99198285     0.97900
C671        C  0.28606410  0.50512335  0.06463366     1.05300
O672        O  0.28689940  0.42836294  0.03105944    -1.11800
O673        O  0.31130958  0.39347244  0.05614199    -0.74300
O674        O  0.31813173  0.44108802  0.03115896    -0.77800
O675        O  0.26245526  0.46340825  0.00563883    -0.78400
C676        C  0.32093688  0.41500543  0.04814712     0.96800
O677        O  0.30098660  0.43875097  0.97623662    -0.76400
O678        O  0.28276105  0.36763493  0.07113382    -0.81600
C679        C  0.26376104  0.36732776  0.01274523     0.99400
C680        C  0.27505738  0.38451169  0.08965128     1.05400
O681        O  0.25874273  0.39196468  0.02894604    -0.77200
C682        C  0.30444533  0.40690526  0.97136417     1.03700
Fe683      Fe  0.44165489  0.27277700  0.01554378     1.65800
Fe684      Fe  0.44708809  0.35866776  0.02776009     1.73200
Fe685      Fe  0.47424818  0.30079858  0.03690127     1.54400
O686        O  0.46855042  0.25366153  0.05858749    -0.81000
O687        O  0.46254422  0.37428907  0.99956477    -0.79300
O688        O  0.44478391  0.24814151  0.05485457    -0.83500
O689        O  0.45787905  0.24155819  0.99626493    -0.78300
O690        O  0.47281828  0.32714207  0.07633267    -0.80100
O691        O  0.43406597  0.35110865  0.99094585    -0.82900
C692        C  0.47060181  0.24850857  0.98789922     0.97900
C693        C  0.45675608  0.23841972  0.06540647     1.05300
O694        O  0.45439323  0.31072272  0.02719652    -1.11800
O695        O  0.43097987  0.34536881  0.05595227    -0.74300
O696        O  0.42314005  0.29816892  0.03230321    -0.77800
O697        O  0.47751362  0.27455651  0.99796959    -0.78400
C698        C  0.42091267  0.32470878  0.04906347     0.96800
O699        O  0.43876276  0.29642086  0.97568752    -0.76400
O700        O  0.45949059  0.37355332  0.06367040    -0.81600
C701        C  0.47597807  0.37033104  0.00039718     0.99400
C702        C  0.46823907  0.35829467  0.08101140     1.05400
O703        O  0.48200092  0.34653726  0.01603952    -0.77200
C704        C  0.43464606  0.32786312  0.97075373     1.03700
C705        C  0.36156357  0.40850416  0.04627571    -0.27500
C706        C  0.36394596  0.37984440  0.06527632     0.06100
C707        C  0.35248550  0.36642015  0.08173701     0.25700
C708        C  0.33865620  0.38001398  0.07773861    -0.12000
C709        C  0.33597265  0.40707262  0.05705024    -0.25900
C710        C  0.34772922  0.42209121  0.04211706     0.36500
C711        C  0.37809683  0.36213280  0.06545095     0.06100
F712        F  0.35457734  0.33921414  0.10075674    -0.19700
H713        H  0.32992144  0.36806226  0.08984489     0.15900
F714        F  0.34579851  0.44813927  0.02196732    -0.23400
H715        H  0.37034784  0.41917502  0.03348454     0.17700
C716        C  0.38038572  0.33163204  0.04849961     0.25700
C717        C  0.39423365  0.31785674  0.04497927    -0.12000
C718        C  0.40606200  0.33427486  0.05830437    -0.26000
C719        C  0.40350332  0.36354140  0.07694854     0.36600
C720        C  0.38966165  0.37738744  0.08020471    -0.27600
F721        F  0.36933212  0.31650437  0.03387920    -0.19700
H722        H  0.39577340  0.29551577  0.03044311     0.15900
F723        F  0.41443276  0.37999009  0.09097335    -0.23500
H724        H  0.38803394  0.40082443  0.09347098     0.17800
C725        C  0.43427224  0.33093412  0.88793816    -0.27500
C726        C  0.42529834  0.35996169  0.88243443     0.06100
C727        C  0.41871418  0.37739776  0.90614261     0.25700
C728        C  0.42146842  0.36639198  0.93494405    -0.12000
C729        C  0.43075974  0.33780819  0.94043880    -0.25900
C730        C  0.43707066  0.32001210  0.91656027     0.36500
C731        C  0.42437559  0.37374119  0.85212739     0.06100
F732        F  0.40980613  0.40527740  0.90145021    -0.19700
H733        H  0.41648603  0.38047215  0.95295345     0.15900
F734        F  0.44666799  0.29343796  0.92083003    -0.23400
H735        H  0.43969741  0.31770037  0.86999711     0.17700
C736        C  0.42923020  0.40801300  0.84574541     0.25700
C737        C  0.43127360  0.41852493  0.81670774    -0.12000
C738        C  0.42862893  0.39507941  0.79335312    -0.26000
C739        C  0.42284535  0.36150327  0.79976329     0.36600
C740        C  0.42082983  0.35097558  0.82894333    -0.27600
F741        F  0.43316111  0.43033417  0.86758328    -0.19700
H742        H  0.43566598  0.44460317  0.81267373     0.15900
F743        F  0.41966937  0.33829967  0.77806429    -0.23500
H744        H  0.41705545  0.32442632  0.83353087     0.17800
C745        C  0.31594683  0.38101617  0.82767825    -0.27500
C746        C  0.30936524  0.36147756  0.85031339     0.06100
C747        C  0.30121154  0.33160146  0.84290044     0.25700
C748        C  0.29976356  0.32144810  0.81365941    -0.12000
C749        C  0.30613142  0.34113033  0.79090205    -0.25900
C750        C  0.31434806  0.37103827  0.79820543     0.36500
C751        C  0.30994175  0.37381036  0.88127481     0.06100
F752        F  0.29392230  0.31331149  0.86376574    -0.19700
H753        H  0.29311938  0.29875322  0.80877080     0.15900
F754        F  0.32082242  0.39057566  0.77699778    -0.23400
H755        H  0.32221218  0.40425711  0.83284889     0.17700
C756        C  0.31315056  0.35044947  0.90449574     0.25700
C757        C  0.31182362  0.36153750  0.93372506    -0.12000
C758        C  0.30739945  0.39621451  0.94043632    -0.26000
C759        C  0.30487649  0.41999223  0.91698196     0.36600
C760        C  0.30615819  0.40880222  0.88789710    -0.27600
F761        F  0.31744496  0.31677925  0.89891520    -0.19700
H762        H  0.31398631  0.34269803  0.95110595     0.15900
F763        F  0.30056162  0.45380366  0.92190344    -0.23500
H764        H  0.30358109  0.42724614  0.87043960     0.17800
C765        C  0.38586948  0.37356082  0.65271312    -0.27500
C766        C  0.37519417  0.38245320  0.67300297     0.06100
C767        C  0.37829865  0.40672044  0.69540955     0.25700
C768        C  0.39216323  0.42032358  0.69840663    -0.12000
C769        C  0.40315350  0.40986540  0.67912935    -0.25900
C770        C  0.39971215  0.38727331  0.65554907     0.36500
C771        C  0.36093630  0.36565558  0.67140471     0.06100
F772        F  0.36811232  0.41566560  0.71536573    -0.19700
H773        H  0.39449155  0.43724065  0.71692486     0.15900
F774        F  0.40985903  0.37733545  0.63583948    -0.23400
H775        H  0.38354873  0.35534062  0.63505430     0.17700
C776        C  0.34901560  0.38543282  0.66254495     0.25700
C777        C  0.33532849  0.37077473  0.66412169    -0.12000
C778        C  0.33315878  0.33628864  0.67524561    -0.26000
C779        C  0.34526217  0.31581201  0.68266560     0.36600
C780        C  0.35904547  0.33043659  0.68056249    -0.27600
F781        F  0.35057467  0.41941567  0.65336344    -0.19700
H782        H  0.32633097  0.38742592  0.65814319     0.15900
F783        F  0.34378644  0.28229481  0.69296534    -0.23500
H784        H  0.36821522  0.31479396  0.68729875     0.17800
C785        C  0.25384993  0.28937007  0.96737110    -0.27500
C786        C  0.24534298  0.27017943  0.98716110     0.06100
C787        C  0.24044587  0.28704977  0.01288915     0.25700
C788        C  0.24508522  0.32129553  0.01975002    -0.12000
C789        C  0.25461126  0.33905300  0.00104225    -0.25900
C790        C  0.25833793  0.32352541  0.97405733     0.36500
C791        C  0.24249135  0.23212900  0.98155585     0.06100
F792        F  0.23169368  0.26991951  0.03199024    -0.19700
H793        H  0.24222075  0.33261044  0.04075726     0.15900
F794        F  0.26740886  0.34022615  0.95528459    -0.23400
H795        H  0.25783734  0.27714813  0.94751881     0.17700
C796        C  0.23847247  0.22039570  0.95346852     0.25700
C797        C  0.23579975  0.18459385  0.94851685    -0.12000
C798        C  0.23667712  0.16003619  0.97152497    -0.26000
C799        C  0.24101866  0.17132079  0.99935600     0.36600
C800        C  0.24417381  0.20702067  0.00417397    -0.27600
F801        F  0.23617396  0.24374367  0.93128621    -0.19700
H802        H  0.23187796  0.17648082  0.92723790     0.15900
F803        F  0.24153542  0.14811767  0.02209302    -0.23500
H804        H  0.24762437  0.21516039  0.02577683     0.17800
C805        C  0.23882000  0.12853645  0.82811829    -0.27500
C806        C  0.23649800  0.16516415  0.82606392     0.06100
C807        C  0.22645688  0.18106254  0.84494348     0.25700
C808        C  0.21938410  0.16088925  0.86626026    -0.12000
C809        C  0.22213372  0.12439248  0.86929360    -0.25900
C810        C  0.23169856  0.10823858  0.84933412     0.36500
C811        C  0.24456299  0.18669280  0.80430332     0.06100
F812        F  0.22401218  0.21647177  0.84376489    -0.19700
H813        H  0.21217628  0.17429566  0.88123799     0.15900
F814        F  0.23462229  0.07307993  0.85087220    -0.23400
H815        H  0.24630964  0.11564857  0.81339158     0.17700
C816        C  0.25963921  0.18600850  0.80322019     0.25700
C817        C  0.26705856  0.20678143  0.78268505    -0.12000
C818        C  0.25960438  0.22874605  0.76292922    -0.26000
C819        C  0.24448013  0.22915411  0.76408730     0.36600
C820        C  0.23712444  0.20839018  0.78453386    -0.27600
F821        F  0.26719733  0.16601778  0.82256022    -0.19700
H822        H  0.27866233  0.20601835  0.78252106     0.15900
F823        F  0.23669172  0.24916251  0.74515425    -0.23500
H824        H  0.22551277  0.20901913  0.78476136     0.17800
C825        C  0.10527017  0.11737562  0.90240597    -0.27500
C826        C  0.11527030  0.12521823  0.92437296     0.06100
C827        C  0.11169248  0.15043882  0.94580629     0.25700
C828        C  0.09806522  0.16597596  0.94622840    -0.12000
C829        C  0.08762474  0.15629986  0.92556592    -0.25900
C830        C  0.09151491  0.13247345  0.90307892     0.36500
C831        C  0.12921641  0.10628973  0.92581226     0.06100
F832        F  0.12128041  0.15926067  0.96689982    -0.19700
H833        H  0.09540910  0.18391950  0.96392933     0.15900
F834        F  0.08186293  0.12269389  0.88241116    -0.23400
H835        H  0.10790085  0.09832420  0.88550720     0.17700
C836        C  0.13268898  0.08552361  0.95044735     0.25700
C837        C  0.14649303  0.07148552  0.95371152    -0.12000
C838        C  0.15716201  0.07833193  0.93270224    -0.26000
C839        C  0.15337646  0.09711435  0.90704909     0.36600
C840        C  0.13947952  0.11070184  0.90360885    -0.27600
F841        F  0.12285278  0.07997173  0.97191715    -0.19700
H842        H  0.14909016  0.05732507  0.97370166     0.15900
F843        F  0.16326890  0.10361977  0.88586313    -0.23500
H844        H  0.13694645  0.12625271  0.88430724     0.17800
C845        C  0.25266607  0.36232633  0.15749697    -0.27500
C846        C  0.25573228  0.32623818  0.16168564     0.06100
C847        C  0.26625009  0.31044616  0.14367736     0.25700
C848        C  0.27305789  0.33002718  0.12147395    -0.12000
C849        C  0.26956423  0.36580115  0.11643639    -0.25900
C850        C  0.25945245  0.38193183  0.13532173     0.36500
C851        C  0.24732674  0.30497688  0.18352919     0.06100
F852        F  0.26935064  0.27546890  0.14622604    -0.19700
H853        H  0.28067481  0.31660808  0.10738167     0.15900
F854        F  0.25560074  0.41633423  0.13175418    -0.23400
H855        H  0.24474257  0.37531791  0.17115533     0.17700
C856        C  0.25409651  0.28141768  0.20306349     0.25700
C857        C  0.24597571  0.26020751  0.22206736    -0.12000
C858        C  0.23088899  0.26224486  0.22266135    -0.26000
C859        C  0.22413346  0.28686634  0.20396044     0.36600
C860        C  0.23227328  0.30776164  0.18460180    -0.27600
F861        F  0.26860236  0.27937927  0.20432696    -0.19700
H862        H  0.25159659  0.24224698  0.23662051     0.15900
F863        F  0.20965900  0.29025280  0.20379344    -0.23500
H864        H  0.22673870  0.32572639  0.16991229     0.17800
C865        C  0.17434093  0.10799779  0.15651393    -0.27500
C866        C  0.17849044  0.13083958  0.13369009     0.06100
C867        C  0.18294372  0.16532500  0.14055062     0.25700
C868        C  0.18421854  0.17571924  0.16976172    -0.12000
C869        C  0.18120558  0.15191946  0.19274816    -0.25900
C870        C  0.17570228  0.11829058  0.18580504     0.36500
C871        C  0.17981273  0.11737965  0.10331408     0.06100
F872        F  0.18716616  0.18809474  0.11916233    -0.19700
H873        H  0.18837228  0.20187582  0.17428567     0.15900
F874        F  0.17220929  0.09474748  0.20715843    -0.23400
H875        H  0.17060016  0.08154991  0.15164204     0.17700
C876        C  0.18759666  0.08619426  0.09785652     0.25700
C877        C  0.19013358  0.07518419  0.06918090    -0.12000
C878        C  0.18514611  0.09513982  0.04521284    -0.26000
C879        C  0.17705765  0.12598145  0.05063480     0.36600
C880        C  0.17439145  0.13684682  0.07948055    -0.27600
F881        F  0.19346970  0.06733255  0.12020356    -0.19700
H882        H  0.19649092  0.05151925  0.06579365     0.15900
F883        F  0.17180527  0.14576637  0.02820452    -0.23500
H884        H  0.16827214  0.16080660  0.08322613     0.17800
C885        C  0.05720175  0.16051038  0.09078703    -0.27500
C886        C  0.06570160  0.13074197  0.09694084     0.06100
C887        C  0.07255914  0.11310949  0.07363057     0.25700
C888        C  0.07035644  0.12414193  0.04467456    -0.12000
C889        C  0.06142646  0.15316744  0.03846737    -0.25900
C890        C  0.05511299  0.17179486  0.06196109     0.36500
C891        C  0.06600502  0.11624785  0.12719934     0.06100
F892        F  0.08119504  0.08484419  0.07882058    -0.19700
H893        H  0.07543642  0.10955710  0.02705950     0.15900
F894        F  0.04616810  0.19959546  0.05712706    -0.23400
H895        H  0.05155996  0.17409271  0.10823744     0.17700
C896        C  0.06791966  0.13840634  0.15163345     0.25700
C897        C  0.06609978  0.12508299  0.18003832    -0.12000
C898        C  0.06232389  0.08945294  0.18467726    -0.26000
C899        C  0.06112476  0.06696210  0.16016231     0.36600
C900        C  0.06289710  0.08035419  0.13184760    -0.27600
F901        F  0.07124221  0.17311416  0.14804099    -0.19700
H902        H  0.06716438  0.14307339  0.19836398     0.15900
F903        F  0.05759874  0.03232156  0.16326823    -0.23500
H904        H  0.06113636  0.06286167  0.11341170     0.17800
C905        C  0.11188141  0.07647199  0.29420649    -0.27500
C906        C  0.11376429  0.10853258  0.30936931     0.06100
C907        C  0.10169862  0.12526031  0.32148866     0.25700
C908        C  0.08803663  0.11081444  0.31764771    -0.12000
C909        C  0.08598274  0.07960007  0.30122341    -0.25900
C910        C  0.09817760  0.06214459  0.29004097     0.36500
C911        C  0.12823416  0.12494599  0.31125555     0.06100
F912        F  0.10308836  0.15586759  0.33674956    -0.19700
H913        H  0.07896091  0.12509844  0.32660840     0.15900
F914        F  0.09688061  0.03216196  0.27394040    -0.23400
H915        H  0.12102448  0.06317645  0.28450983     0.17700
C916        C  0.14003408  0.10512420  0.32102399     0.25700
C917        C  0.15385325  0.11921370  0.31955310    -0.12000
C918        C  0.15634059  0.15328216  0.30790708    -0.26000
C919        C  0.14439904  0.17399747  0.29983050     0.36600
C920        C  0.13050370  0.15990259  0.30157282    -0.27600
F921        F  0.13824050  0.07170425  0.33136861    -0.19700
H922        H  0.16271055  0.10247376  0.32618996     0.15900
F923        F  0.14614055  0.20726394  0.28914490    -0.23500
H924        H  0.12155644  0.17577652  0.29403574     0.17800
C925        C  0.00420316  0.20951479  0.43391015    -0.27500
C926        C  0.99682999  0.18278181  0.41886006     0.06100
C927        C  0.98231651  0.17692223  0.42562988     0.25700
C928        C  0.97531564  0.19789977  0.44657285    -0.12000
C929        C  0.98261053  0.22515026  0.46135610    -0.25900
C930        C  0.99725067  0.23044329  0.45490119     0.36500
C931        C  0.00425016  0.16195530  0.39561391     0.06100
F932        F  0.97474636  0.15166300  0.41133161    -0.19700
H933        H  0.96412291  0.19293964  0.45098698     0.15900
F934        F  0.00495532  0.25576671  0.46880727    -0.23400
H935        H  0.01542042  0.21417696  0.42942097     0.17700
C936        C  0.01181680  0.17921185  0.37304976     0.25700
C937        C  0.01853932  0.15968469  0.35090669    -0.12000
C938        C  0.01780417  0.12248853  0.35044641    -0.26000
C939        C  0.01036029  0.10516668  0.37327213     0.36600
C940        C  0.00371070  0.12477749  0.39558636    -0.27600
F941        F  0.01220269  0.21509580  0.37170151    -0.19700
H942        H  0.02395525  0.17396087  0.33343026     0.15900
F943        F  0.00944688  0.06933031  0.37404778    -0.23500
H944        H  0.99808904  0.11082854  0.41295935     0.17800
C945        C  0.86316589  0.40689051  0.55004813    -0.27500
C946        C  0.86537033  0.37051761  0.55514617     0.06100
C947        C  0.85344117  0.34881448  0.56012878     0.25700
C948        C  0.83961212  0.36299597  0.55923385    -0.12000
C949        C  0.83723786  0.39907693  0.55277423    -0.25900
C950        C  0.84922760  0.42104926  0.54848233     0.36500
C951        C  0.88000858  0.35494190  0.55384048     0.06100
F952        F  0.85515192  0.31367126  0.56540580    -0.19700
H953        H  0.83067752  0.34511636  0.56232044     0.15900
F954        F  0.84750135  0.45593923  0.54231929    -0.23400
H955        H  0.87224968  0.42408372  0.54617892     0.17700
C956        C  0.88331525  0.32831542  0.53336888     0.25700
C957        C  0.89728772  0.31502236  0.53109955    -0.12000
C958        C  0.90831823  0.32810740  0.54901603    -0.26000
C959        C  0.90483118  0.35373740  0.57038500     0.36600
C960        C  0.89083271  0.36706443  0.57258833    -0.27600
F961        F  0.87320264  0.31654443  0.51440727    -0.19700
H962        H  0.89961405  0.29580484  0.51414122     0.15900
F963        F  0.91500559  0.36662509  0.58869192    -0.23500
H964        H  0.88845989  0.38723666  0.58875071     0.17800
C965        C  0.92156895  0.39482217  0.33531027    -0.27500
C966        C  0.92760386  0.36303250  0.34567206     0.06100
C967        C  0.93484175  0.34083720  0.32572405     0.25700
C968        C  0.93668341  0.35131480  0.29661962    -0.12000
C969        C  0.93165744  0.38433254  0.28692804    -0.25900
C970        C  0.92371646  0.40566467  0.30627645     0.36500
C971        C  0.92779638  0.35487932  0.37756009     0.06100
F972        F  0.94113289  0.31027886  0.33475247    -0.19700
H973        H  0.94286814  0.33450400  0.28209601     0.15900
F974        F  0.91824820  0.43717416  0.29727391    -0.23400
H975        H  0.91561988  0.41190417  0.35000555     0.17700
C976        C  0.93207072  0.38076009  0.39793638     0.25700
C977        C  0.93462463  0.37152595  0.42713932    -0.12000
C978        C  0.93322947  0.33630718  0.43651108    -0.26000
C979        C  0.92814541  0.31082397  0.41658285     0.36600
C980        C  0.92530662  0.32021881  0.38751725    -0.27600
F981        F  0.93486128  0.41443147  0.38925997    -0.19700
H982        H  0.93854220  0.39162088  0.44200928     0.15900
F983        F  0.92625573  0.27662771  0.42492761    -0.23500
H984        H  0.92166633  0.30001619  0.37247329     0.17800
C985        C  0.01144162  0.20626706  0.20749330    -0.27500
C986        C  0.99960048  0.21947232  0.22299562     0.06100
C987        C  0.99124970  0.19567757  0.23969315     0.25700
C988        C  0.99604850  0.16105321  0.24457487    -0.12000
C989        C  0.00893099  0.14943564  0.23200985    -0.25900
C990        C  0.01588416  0.17138573  0.21136673     0.36500
C991        C  0.99641655  0.25803054  0.22238560     0.06100
F992        F  0.97873907  0.20618938  0.25216535    -0.19700
H993        H  0.99027765  0.14438593  0.25989996     0.15900
F994        F  0.02778113  0.16017455  0.19685866    -0.23400
H995        H  0.01784196  0.22342845  0.19370700     0.17700
C996        C  0.99218385  0.27611399  0.24801844     0.25700
C997        C  0.98763125  0.31128659  0.24640651    -0.12000
C998        C  0.98804145  0.32956585  0.21966328    -0.26000
C999        C  0.99390682  0.31295106  0.19486814     0.36600
C1000       C  0.99780706  0.27730769  0.19611928    -0.27600
F1001       F  0.99221892  0.25974466  0.27454415    -0.19700
H1002       H  0.98317581  0.32380672  0.26574490     0.15900
F1003       F  0.99440264  0.33000074  0.16864798    -0.23500
H1004       H  0.00123770  0.26442141  0.17611331     0.17800
C1005       C  0.98768823  0.36001021  0.07021488    -0.27500
C1006       C  0.98701057  0.32286727  0.06910326     0.06100
C1007       C  0.97891652  0.30498827  0.09056236     0.25700
C1008       C  0.97191547  0.32379008  0.11277207    -0.12000
C1009       C  0.97291883  0.36089633  0.11455894    -0.25900
C1010       C  0.98070963  0.37891706  0.09257679     0.36500
C1011       C  0.99524860  0.30263120  0.04657674     0.06100
F1012       F  0.97844089  0.26908596  0.09113178    -0.19700
H1013       H  0.96622096  0.30891009  0.12945062     0.15900
F1014       F  0.98190611  0.41470608  0.09299122    -0.23400
H1015       H  0.99379579  0.37442434  0.05386402     0.17700
C1016       C  0.98871152  0.27551857  0.03034121     0.25700
C1017       C  0.99684154  0.25415120  0.01157416    -0.12000
C1018       C  0.01166547  0.25956305  0.00799474    -0.26000
C1019       C  0.01807429  0.28801457  0.02304310     0.36600
C1020       C  0.00993375  0.30913364  0.04219401    -0.27600
F1021       F  0.97439402  0.26979790  0.03244078    -0.19700
H1022       H  0.99144782  0.23326628  0.99973054     0.15900
F1023       F  0.03225209  0.29498397  0.01991979    -0.23500
H1024       H  0.01521036  0.32999603  0.05427531     0.17800
C1025       C  0.82326650  0.37434856  0.33060879    -0.27500
C1026       C  0.81822774  0.35306615  0.35376732     0.06100
C1027       C  0.81159030  0.32072491  0.34718908     0.25700
C1028       C  0.80928173  0.31102773  0.31807772    -0.12000
C1029       C  0.81336565  0.33346992  0.29484254    -0.25900
C1030       C  0.82091082  0.36467516  0.30137019     0.36500
C1031       C  0.81766118  0.36722960  0.38406355     0.06100
F1032       F  0.80615710  0.29994278  0.36881777    -0.19700
H1033       H  0.80347855  0.28678660  0.31386352     0.15900
F1034       F  0.82560210  0.38638532  0.27965317    -0.23400
H1035       H  0.82848087  0.39929701  0.33523301     0.17700
C1036       C  0.82205091  0.34711408  0.40848346     0.25700
C1037       C  0.81916726  0.35906652  0.43700457    -0.12000
C1038       C  0.81195467  0.39134240  0.44164167    -0.26000
C1039       C  0.80819718  0.41207465  0.41701280     0.36600
C1040       C  0.81106225  0.40007891  0.38871802    -0.27600
F1041       F  0.82891484  0.31572900  0.40474582    -0.19700
H1042       H  0.82234478  0.34272850  0.45544309     0.15900
F1043       F  0.80104843  0.44319629  0.41998225    -0.23500
H1044       H  0.80742943  0.41582311  0.37025881     0.17800
C1045       C  0.88063895  0.40494865  0.17555074    -0.27500
C1046       C  0.87829164  0.37127655  0.16342103     0.06100
C1047       C  0.89004211  0.35198851  0.15274880     0.25700
C1048       C  0.90394272  0.36483905  0.15644319    -0.12000
C1049       C  0.90646079  0.39715704  0.17096086    -0.25900
C1050       C  0.89456645  0.41787019  0.17933792     0.36500
C1051       C  0.86374032  0.35556347  0.16428930     0.06100
F1052       F  0.88811044  0.32017640  0.13956749    -0.19700
H1053       H  0.91278763  0.34840055  0.14921532     0.15900
F1054       F  0.89633414  0.44970489  0.19256298    -0.23400
H1055       H  0.87169432  0.42047697  0.18360592     0.17700
C1056       C  0.86131379  0.32272053  0.17809857     0.25700
C1057       C  0.84732666  0.31076061  0.18302446    -0.12000
C1058       C  0.83549413  0.33129749  0.17437388    -0.26000
C1059       C  0.83802783  0.36307064  0.15871505     0.36600
C1060       C  0.85199243  0.37501197  0.15398443    -0.27600
F1061       F  0.87241107  0.30345243  0.18888676    -0.19700
H1062       H  0.84578586  0.28635061  0.19511120     0.15900
F1063       F  0.82706161  0.38386720  0.14935356    -0.23500
H1064       H  0.85363251  0.40021199  0.14311346     0.17800
C1065       C  0.44614241  0.59386391  0.64513305    -0.27500
C1066       C  0.45710223  0.60054398  0.62477565     0.06100
C1067       C  0.46751735  0.57419813  0.61977723     0.25700
C1068       C  0.46683769  0.54183065  0.63481306    -0.12000
C1069       C  0.45569916  0.53499066  0.65483563    -0.25900
C1070       C  0.44534221  0.56153607  0.65984641     0.36500
C1071       C  0.45732186  0.63486762  0.60876516     0.06100
F1072       F  0.47814414  0.57935743  0.59988523    -0.19700
H1073       H  0.47497612  0.52199848  0.63061140     0.15900
F1074       F  0.43463206  0.55686150  0.67965661    -0.23400
H1075       H  0.43819326  0.61398003  0.64991830     0.17700
C1076       C  0.44472335  0.64821347  0.59596776     0.25700
C1077       C  0.44475414  0.68089184  0.58170927    -0.12000
C1078       C  0.45735608  0.70110604  0.57942704    -0.26000
C1079       C  0.47002950  0.68767364  0.59215216     0.36600
C1080       C  0.46994676  0.65495224  0.60674974    -0.27600
F1081       F  0.43239921  0.62920129  0.59651537    -0.19700
H1082       H  0.43484294  0.69000373  0.57192330     0.15900
F1083       F  0.48252392  0.70586322  0.59042153    -0.23500
H1084       H  0.47974833  0.64544408  0.61674143     0.17800
C1085       C  0.27016818  0.08014630  0.60588793    -0.27500
C1086       C  0.28249845  0.10130322  0.60744954     0.06100
C1087       C  0.29538376  0.08860877  0.59551520     0.25700
C1088       C  0.29591132  0.05554393  0.58221146    -0.12000
C1089       C  0.28359674  0.03426992  0.58015345    -0.25900
C1090       C  0.27066464  0.04684931  0.59238763     0.36500
C1091       C  0.28221982  0.13599364  0.62244622     0.06100
F1092       F  0.30744063  0.10864063  0.59602720    -0.19700
H1093       H  0.30602939  0.04702113  0.57288799     0.15900
F1094       F  0.25850305  0.02729332  0.59118001    -0.23400
H1095       H  0.26017695  0.08931559  0.61537111     0.17700
C1096       C  0.27224709  0.16246330  0.61491389     0.25700
C1097       C  0.27258176  0.19540086  0.62902465    -0.12000
C1098       C  0.28297795  0.20248251  0.65049129    -0.26000
C1099       C  0.29287083  0.17574054  0.65799349     0.36600
C1100       C  0.29240971  0.14294803  0.64419089    -0.27600
F1101       F  0.26244635  0.15676978  0.59349379    -0.19700
H1102       H  0.26479605  0.21545277  0.62303380     0.15900
F1103       F  0.30268722  0.18067406  0.67953175    -0.23500
H1104       H  0.30001360  0.12269365  0.65069586     0.17800
C1105       C  0.24132106  0.10066996  0.40022561    -0.27500
C1106       C  0.23908415  0.06393045  0.40147724     0.06100
C1107       C  0.22904855  0.04889652  0.38212515     0.25700
C1108       C  0.22184547  0.07004016  0.36149422    -0.12000
C1109       C  0.22442530  0.10670123  0.35954911    -0.25900
C1110       C  0.23415919  0.12182972  0.37961523     0.36500
C1111       C  0.24728850  0.04165292  0.42285630     0.06100
F1112       F  0.22665141  0.01347750  0.38221879    -0.19700
H1113       H  0.21455692  0.05735928  0.34634723     0.15900
F1114       F  0.23708866  0.15699470  0.37902242    -0.23400
H1115       H  0.24874045  0.11311907  0.41524109     0.17700
C1116       C  0.26224070  0.04526282  0.42599337     0.25700
C1117       C  0.26975814  0.02498162  0.44672456    -0.12000
C1118       C  0.26263019  0.00036922  0.46474320    -0.26000
C1119       C  0.24767494  0.99640894  0.46123414     0.36600
C1120       C  0.24017004  0.01688205  0.44065066    -0.27600
F1121       F  0.26966675  0.06797040  0.40861986    -0.19700
H1122       H  0.28123938  0.02854009  0.44859041     0.15900
F1123       F  0.24015251  0.97334890  0.47811269    -0.23500
H1124       H  0.22865754  0.01380339  0.43902498     0.17800
C1125       C  0.38026267  0.83148571  0.55048284    -0.27500
C1126       C  0.37814626  0.85968863  0.57001285     0.06100
C1127       C  0.38941570  0.87004059  0.58833604     0.25700
C1128       C  0.40298577  0.85464314  0.58503368    -0.12000
C1129       C  0.40552119  0.82863289  0.56343536    -0.25900
C1130       C  0.39377159  0.81585488  0.54727967     0.36500
C1131       C  0.36476853  0.88066656  0.56827955     0.06100
F1132       F  0.38762224  0.89703082  0.60760962    -0.19700
H1133       H  0.41173608  0.86487577  0.59805118     0.15900
F1134       F  0.39551044  0.79044266  0.52658358    -0.23400
H1135       H  0.37158063  0.82289190  0.53646874     0.17700
C1136       C  0.36142757  0.89864054  0.54216454     0.25700
C1137       C  0.34814414  0.91516429  0.53878636    -0.12000
C1138       C  0.33780638  0.91336505  0.56111188    -0.26000
C1139       C  0.34150437  0.89740382  0.58805802     0.36600
C1140       C  0.35497985  0.88144151  0.59165521    -0.27600
F1141       F  0.37081070  0.89879991  0.51938471    -0.19700
H1142       H  0.34553002  0.92685172  0.51773199     0.15900
F1143       F  0.33185764  0.89578754  0.61033295    -0.23500
H1144       H  0.35747859  0.86809005  0.61206534     0.17800
C1145       C  0.46724379  0.07758001  0.11423645    -0.27500
C1146       C  0.45816417  0.10395600  0.12563909     0.06100
C1147       C  0.44896526  0.09551073  0.14902016     0.25700
C1148       C  0.44896371  0.06152335  0.16089006    -0.12000
C1149       C  0.45827881  0.03534216  0.15011613    -0.25900
C1150       C  0.46738380  0.04352441  0.12645320     0.36500
C1151       C  0.45791175  0.13986204  0.11257423     0.06100
F1152       F  0.44034328  0.12050718  0.16115696    -0.19700
H1153       H  0.44204963  0.05612136  0.17948313     0.15900
F1154       F  0.47629839  0.01865541  0.11505211    -0.23400
H1155       H  0.47418882  0.08335433  0.09578375     0.17700
C1156       C  0.47059929  0.15902231  0.10777894     0.25700
C1157       C  0.47012828  0.19203394  0.09381856    -0.12000
C1158       C  0.45700128  0.20656108  0.08450933    -0.26000
C1159       C  0.44424603  0.18803607  0.09089788     0.36600
C1160       C  0.44477672  0.15500177  0.10449176    -0.27600
F1161       F  0.48343549  0.14579368  0.11651766    -0.19700
H1162       H  0.48010490  0.20569347  0.08952321     0.15900
F1163       F  0.43121628  0.20104238  0.08315606    -0.23500
H1164       H  0.43486543  0.14072100  0.10798275     0.17800
C1165       C  0.42503519  0.84322919  0.39635959    -0.27500
C1166       C  0.43129756  0.87572912  0.38850676     0.06100
C1167       C  0.43639485  0.89800131  0.41091860     0.25700
C1168       C  0.43612579  0.88669926  0.44018515    -0.12000
C1169       C  0.43109461  0.85281098  0.44756088    -0.25900
C1170       C  0.42509541  0.83161042  0.42548850     0.36500
C1171       C  0.43362370  0.88454018  0.35699195     0.06100
F1172       F  0.44269188  0.92940689  0.40441731    -0.19700
H1173       H  0.44085439  0.90342196  0.45680763     0.15900
F1174       F  0.41974848  0.79912051  0.43191854    -0.23400
H1175       H  0.42061838  0.82606961  0.37968203     0.17700
C1176       C  0.43938681  0.85903492  0.33778270     0.25700
C1177       C  0.44203255  0.86740788  0.30844747    -0.12000
C1178       C  0.43930857  0.90154160  0.29755841    -0.26000
C1179       C  0.43359749  0.92721986  0.31671521     0.36600
C1180       C  0.43067990  0.91861442  0.34604904    -0.27600
F1181       F  0.44307351  0.82632740  0.34761267    -0.19700
H1182       H  0.44667101  0.84729366  0.29440670     0.15900
F1183       F  0.43072181  0.96052200  0.30712546    -0.23500
H1184       H  0.42612210  0.93865685  0.36024653     0.17800
C1185       C  0.29725565  0.59740211  0.08797561    -0.27500
C1186       C  0.28643107  0.60657347  0.10788622     0.06100
C1187       C  0.27554030  0.58197138  0.11406208     0.25700
C1188       C  0.27555604  0.54872135  0.10042635    -0.12000
C1189       C  0.28646470  0.53940138  0.08054540    -0.25900
C1190       C  0.29732117  0.56433303  0.07440489     0.36500
C1191       C  0.28687833  0.64155740  0.12249957     0.06100
F1192       F  0.26508613  0.58980900  0.13374153    -0.19700
H1193       H  0.26704529  0.53022101  0.10547616     0.15900
F1194       F  0.30778172  0.55741077  0.05448798    -0.23400
H1195       H  0.30563740  0.61616569  0.08266854     0.17700
C1196       C  0.29911047  0.65181610  0.13817920     0.25700
C1197       C  0.29957794  0.68465146  0.15210067    -0.12000
C1198       C  0.28785784  0.70808380  0.15081125    -0.26000
C1199       C  0.27571473  0.69813419  0.13437740     0.36600
C1200       C  0.27525837  0.66508967  0.12047916    -0.27600
F1201       F  0.31044129  0.62947740  0.14093419    -0.19700
H1202       H  0.30903090  0.69121357  0.16470245     0.15900
F1203       F  0.26424610  0.72007977  0.13184432    -0.23500
H1204       H  0.26583217  0.65785909  0.10804242     0.17800
C1205       C  0.25036609  0.96457800  0.20467095    -0.27500
C1206       C  0.25117554  0.98269336  0.23144228     0.06100
C1207       C  0.25564213  0.96429925  0.25674689     0.25700
C1208       C  0.26031738  0.92928675  0.25460872    -0.12000
C1209       C  0.25992492  0.91173431  0.22758840    -0.25900
C1210       C  0.25448645  0.92927429  0.20280110     0.36500
C1211       C  0.24658674  0.02006669  0.23293936     0.06100
F1212       F  0.25542990  0.98000793  0.28349084    -0.19700
H1213       H  0.26455308  0.91609746  0.27385950     0.15900
F1214       F  0.25427147  0.91324419  0.17620125    -0.23400
H1215       H  0.24689882  0.97805014  0.18492294     0.17700
C1216       C  0.25432868  0.04537956  0.24903635     0.25700
C1217       C  0.24840275  0.07877128  0.25425989    -0.12000
C1218       C  0.23488221  0.08742865  0.24290658    -0.26000
C1219       C  0.22818767  0.06375302  0.22336108     0.36600
C1220       C  0.23388175  0.03023848  0.21895848    -0.27600
F1221       F  0.26734711  0.03745339  0.26054208    -0.19700
H1222       H  0.25392817  0.09678685  0.26878994     0.15900
F1223       F  0.21550220  0.07172819  0.21031674    -0.23500
H1224       H  0.22786278  0.01155608  0.20590410     0.17800
C1225       C  0.25990622  0.89040498  0.07985242    -0.27500
C1226       C  0.26093112  0.92752216  0.08002445     0.06100
C1227       C  0.26945613  0.94342635  0.10182372     0.25700
C1228       C  0.27632446  0.92260235  0.12329861    -0.12000
C1229       C  0.27480063  0.88544158  0.12382855    -0.25900
C1230       C  0.26666881  0.86963360  0.10129984     0.36500
C1231       C  0.25228389  0.94891687  0.05857204     0.06100
F1232       F  0.27044654  0.97919386  0.10355882    -0.19700
H1233       H  0.28229177  0.93584547  0.14040361     0.15900
F1234       F  0.26476309  0.83405768  0.10040196    -0.23400
H1235       H  0.25354261  0.87733057  0.06324511     0.17700
C1236       C  0.25830301  0.97651807  0.04177170     0.25700
C1237       C  0.24991238  0.99533190  0.02134600    -0.12000
C1238       C  0.23531524  0.98716840  0.01702336    -0.26000
C1239       C  0.22935109  0.95956577  0.03396488     0.36600
C1240       C  0.23772594  0.94088707  0.05431751    -0.27600
F1241       F  0.27240810  0.98457459  0.04429167    -0.19700
H1242       H  0.25493428  0.01618005  0.00868001     0.15900
F1243       F  0.21540768  0.95023072  0.03086873    -0.23500
H1244       H  0.23274608  0.91995197  0.06698063     0.17800
C1245       C  0.32436352  0.87316978  0.33481441    -0.27500
C1246       C  0.31795499  0.85374164  0.35769722     0.06100
C1247       C  0.30940025  0.82440502  0.35047704     0.25700
C1248       C  0.30688997  0.81575525  0.32109685    -0.12000
C1249       C  0.31262683  0.83640012  0.29819971    -0.25900
C1250       C  0.32173178  0.86471869  0.30538986     0.36500
C1251       C  0.31841376  0.86729352  0.38837188     0.06100
F1252       F  0.30253458  0.80569642  0.37168669    -0.19700
H1253       H  0.29981029  0.79385607  0.31629806     0.15900
F1254       F  0.32794060  0.88456466  0.28405118    -0.23400
H1255       H  0.33105771  0.89574803  0.33977003     0.17700
C1256       C  0.32089815  0.84500349  0.41268721     0.25700
C1257       C  0.31878126  0.85760082  0.44136137    -0.12000
C1258       C  0.31430856  0.89270910  0.44631674    -0.26000
C1259       C  0.31299820  0.91557615  0.42189514     0.36600
C1260       C  0.31496558  0.90287996  0.39347093    -0.27600
F1261       F  0.32513047  0.81095334  0.40872987    -0.19700
H1262       H  0.32015770  0.83949881  0.45959671     0.15900
F1263       F  0.30915374  0.95002516  0.42513163    -0.23500
H1264       H  0.31305084  0.92069910  0.37522959     0.17800
C1265       C  0.38519893  0.90633962  0.18739189    -0.27500
C1266       C  0.38285697  0.87221073  0.17620459     0.06100
C1267       C  0.39460478  0.85233276  0.16639009     0.25700
C1268       C  0.40850743  0.86554574  0.16930634    -0.12000
C1269       C  0.41106453  0.89872727  0.18247051    -0.25900
C1270       C  0.39915236  0.91953111  0.19066026     0.36500
C1271       C  0.36825726  0.85677853  0.17657916     0.06100
F1272       F  0.39264680  0.81972626  0.15463083    -0.19700
H1273       H  0.41733409  0.84888419  0.16236784     0.15900
F1274       F  0.40093536  0.95179990  0.20312564    -0.23400
H1275       H  0.37621659  0.92215427  0.19487293     0.17700
C1276       C  0.36506127  0.82752381  0.19456836     0.25700
C1277       C  0.35089226  0.81571465  0.19754534    -0.12000
C1278       C  0.33966214  0.83279619  0.18256501    -0.26000
C1279       C  0.34312612  0.86056598  0.16296525     0.36600
C1280       C  0.35724375  0.87257554  0.16034437    -0.27600
F1281       F  0.37551257  0.81184059  0.21071251    -0.19700
H1282       H  0.34862905  0.79451433  0.21287753     0.15900
F1283       F  0.33280523  0.87713743  0.14707578    -0.23500
H1284       H  0.35954899  0.89482161  0.14608213     0.17800
C1285       C  0.48982544  0.76384511  0.04254561    -0.27500
C1286       C  0.49681806  0.79198434  0.05663924     0.06100
C1287       C  0.51139841  0.79782752  0.05021886     0.25700
C1288       C  0.51852923  0.77713115  0.02927194    -0.12000
C1289       C  0.51144533  0.74959651  0.01448946    -0.25900
C1290       C  0.49699688  0.74280469  0.02184370     0.36500
C1291       C  0.48895530  0.81463340  0.07827299     0.06100
F1292       F  0.51891387  0.82298260  0.06475145    -0.19700
H1293       H  0.52969861  0.78267488  0.02474447     0.15900
F1294       F  0.48967587  0.71604756  0.00894068    -0.23400
H1295       H  0.47866364  0.75840757  0.04726643     0.17700
C1296       C  0.48998785  0.85183296  0.07748393     0.25700
C1297       C  0.48339188  0.87260413  0.09913651    -0.12000
C1298       C  0.47541770  0.85698218  0.12195078    -0.26000
C1299       C  0.47364985  0.81981151  0.12161624     0.36600
C1300       C  0.48038651  0.79907321  0.10012741    -0.27600
F1301       F  0.49735435  0.86823452  0.05568624    -0.19700
H1302       H  0.48486225  0.90102995  0.09839558     0.15900
F1303       F  0.46581296  0.80313080  0.14257388    -0.23500
H1304       H  0.47924356  0.77056741  0.10113821     0.17800
C1305       C  0.50660598  0.51542203  0.99540455    -0.27500
C1306       C  0.50119599  0.50018043  0.96959405     0.06100
C1307       C  0.49881186  0.52201766  0.94497445     0.25700
C1308       C  0.50199394  0.55804980  0.94624144    -0.12000
C1309       C  0.50802988  0.57270076  0.97161737    -0.25900
C1310       C  0.51025765  0.55112712  0.99627465     0.36500
C1311       C  0.49688119  0.46243671  0.96982013     0.06100
F1312       F  0.49404232  0.50838923  0.91926607    -0.19700
H1313       H  0.50072280  0.57394536  0.92660986     0.15900
F1314       F  0.51638834  0.56435402  0.02089522    -0.23400
H1315       H  0.50805437  0.49967699  0.01503841     0.17700
C1316       C  0.50490513  0.43670358  0.98517039     0.25700
C1317       C  0.49863656  0.40436180  0.99281836    -0.12000
C1318       C  0.48450336  0.39703442  0.98442584    -0.26000
C1319       C  0.47754663  0.42028242  0.96479555     0.36600
C1320       C  0.48354050  0.45296838  0.95824725    -0.27600
F1321       F  0.51841739  0.44372576  0.99441851    -0.19700
H1322       H  0.50440333  0.38646458  0.00716312     0.15900
F1323       F  0.46428945  0.41305182  0.95415131    -0.23500
H1324       H  0.47710643  0.47185421  0.94617312     0.17800
C1325       C  0.50245378  0.51323191  0.79237105    -0.27500
C1326       C  0.49579582  0.53988219  0.80902945     0.06100
C1327       C  0.48096191  0.54543155  0.80539370     0.25700
C1328       C  0.47316561  0.52554933  0.78504358    -0.12000
C1329       C  0.47985046  0.49930071  0.76796225    -0.25900
C1330       C  0.49462767  0.49296303  0.77229625     0.36500
C1331       C  0.50431548  0.56202916  0.82981251     0.06100
F1332       F  0.47388983  0.56972881  0.82187615    -0.19700
H1333       H  0.46180980  0.53084070  0.78267671     0.15900
F1334       F  0.50165725  0.46754883  0.75691540    -0.23400
H1335       H  0.51385633  0.50845618  0.79445871     0.17700
C1336       C  0.51429547  0.54673995  0.84925431     0.25700
C1337       C  0.52167038  0.56779097  0.86949531    -0.12000
C1338       C  0.51924495  0.60456265  0.87114462    -0.26000
C1339       C  0.50955379  0.61993680  0.85106391     0.36600
C1340       C  0.50232786  0.59891908  0.83061018    -0.27600
F1341       F  0.51641961  0.51119319  0.84980117    -0.19700
H1342       H  0.52887589  0.55489005  0.88476912     0.15900
F1343       F  0.50659872  0.65511404  0.85172369    -0.23500
H1344       H  0.49497301  0.61160377  0.81550394     0.17800
C1345       C  0.64041586  0.62663416  0.91169862    -0.27500
C1346       C  0.62910218  0.60660829  0.92306598     0.06100
C1347       C  0.63195529  0.57294691  0.93490616     0.25700
C1348       C  0.64608928  0.56058839  0.93693929    -0.12000
C1349       C  0.65760369  0.58147529  0.92701970    -0.25900
C1350       C  0.65450366  0.61424017  0.91334549     0.36500
C1351       C  0.61449348  0.62184459  0.92384254     0.06100
F1352       F  0.62117425  0.55298907  0.94612164    -0.19700
H1353       H  0.64805063  0.53541738  0.94762934     0.15900
F1354       F  0.66509205  0.63539748  0.90291620    -0.23400
H1355       H  0.63834835  0.65245281  0.90217694     0.17700
C1356       C  0.61150177  0.65187302  0.94096544     0.25700
C1357       C  0.59750413  0.66511384  0.94285596    -0.12000
C1358       C  0.58622955  0.64863831  0.92771727    -0.26000
C1359       C  0.58946748  0.61944314  0.90947825     0.36600
C1360       C  0.60344060  0.60615230  0.90781660    -0.27600
F1361       F  0.62199426  0.66724142  0.95707526    -0.19700
H1362       H  0.59539206  0.68718155  0.95736521     0.15900
F1363       F  0.57907785  0.60286052  0.89392956    -0.23500
H1364       H  0.60562202  0.58323570  0.89425898     0.17800
C1365       C  0.75402553  0.37863621  0.08345544    -0.27500
C1366       C  0.75337004  0.41574264  0.08476103     0.06100
C1367       C  0.76019358  0.43307865  0.10818315     0.25700
C1368       C  0.76754845  0.41370933  0.12962578    -0.12000
C1369       C  0.76812822  0.37654228  0.12859120    -0.25900
C1370       C  0.76129776  0.35915832  0.10504928     0.36500
C1371       C  0.74553758  0.43628836  0.06185838     0.06100
F1372       F  0.75923964  0.46875290  0.11106821    -0.19700
H1373       H  0.77235772  0.42789446  0.14772270     0.15900
F1374       F  0.76150893  0.32332496  0.10291880    -0.23400
H1375       H  0.74889695  0.36468709  0.06560976     0.17700
C1376       C  0.75214854  0.46490831  0.04755626     0.25700
C1377       C  0.74461012  0.48508565  0.02698241    -0.12000
C1378       C  0.73029784  0.47719577  0.01976352    -0.26000
C1379       C  0.72376434  0.44790406  0.03358811     0.36600
C1380       C  0.73134814  0.42772391  0.05435728    -0.27600
F1381       F  0.76604776  0.47301003  0.05303933    -0.19700
H1382       H  0.75011031  0.50698608  0.01655627     0.15900
F1383       F  0.71004939  0.43882913  0.02732553    -0.23500
H1384       H  0.72603802  0.40568971  0.06500174     0.17800
C1385       C  0.49114186  0.70122366  0.23872266    -0.27500
C1386       C  0.50044306  0.72330169  0.22262570     0.06100
C1387       C  0.51288525  0.70874138  0.21025863     0.25700
C1388       C  0.51650749  0.67376852  0.21604245    -0.12000
C1389       C  0.50835207  0.65329822  0.23578239    -0.25900
C1390       C  0.49509132  0.66640362  0.24549452     0.36500
C1391       C  0.49809110  0.76201243  0.22212175     0.06100
F1392       F  0.52247520  0.72921736  0.19564134    -0.19700
H1393       H  0.52666545  0.66408721  0.20769594     0.15900
F1394       F  0.48670523  0.64716084  0.26387730    -0.23400
H1395       H  0.48130162  0.71177911  0.24785724     0.17700
C1396       C  0.49961887  0.78195964  0.19619385     0.25700
C1397       C  0.49708005  0.81837235  0.19649767    -0.12000
C1398       C  0.49250362  0.83514279  0.22231503    -0.26000
C1399       C  0.49163389  0.81556334  0.24845220     0.36600
C1400       C  0.49455472  0.77941147  0.24835108    -0.27600
F1401       F  0.50248978  0.76601391  0.17018289    -0.19700
H1402       H  0.49730965  0.83274533  0.17590201     0.15900
F1403       F  0.48701422  0.83096808  0.27364050    -0.23500
H1404       H  0.49365164  0.76475757  0.26871949     0.17800
C1405       C  0.49839974  0.63471794  0.39662490    -0.27500
C1406       C  0.50118457  0.67107690  0.39911213     0.06100
C1407       C  0.51159748  0.68625857  0.38061917     0.25700
C1408       C  0.51873634  0.66560868  0.35961765    -0.12000
C1409       C  0.51571161  0.62930466  0.35651867    -0.25900
C1410       C  0.50554767  0.61398932  0.37572635     0.36500
C1411       C  0.49331740  0.69287805  0.42115736     0.06100
F1412       F  0.51446023  0.72142057  0.38203284    -0.19700
H1413       H  0.52634132  0.67842746  0.34511658     0.15900
F1414       F  0.50226844  0.57906711  0.37412247    -0.23400
H1415       H  0.49061829  0.62226972  0.41096984     0.17700
C1416       C  0.47823887  0.69266325  0.42276238     0.25700
C1417       C  0.47103109  0.71313114  0.44383574    -0.12000
C1418       C  0.47866970  0.73428907  0.46376550    -0.26000
C1419       C  0.49379111  0.73420513  0.46215505     0.36600
C1420       C  0.50094449  0.71384326  0.44107810    -0.27600
F1421       F  0.47045495  0.67323043  0.40354566    -0.19700
H1422       H  0.45942539  0.71256471  0.44441692     0.15900
F1423       F  0.50177533  0.75308562  0.48140760    -0.23500
H1424       H  0.51255970  0.71400102  0.44063364     0.17800
C1425       C  0.51049145  0.43753109  0.17458412    -0.27500
C1426       C  0.49553746  0.44069841  0.17211100     0.06100
C1427       C  0.48823603  0.46419878  0.19073045     0.25700
C1428       C  0.49578658  0.48422646  0.21125104    -0.12000
C1429       C  0.51077325  0.48118080  0.21383992    -0.25900
C1430       C  0.51808003  0.45759011  0.19514746     0.36500
C1431       C  0.48766854  0.41936739  0.15012490     0.06100
F1432       F  0.47374876  0.46712296  0.18962089    -0.19700
H1433       H  0.48981199  0.50187242  0.22545974     0.15900
F1434       F  0.53255153  0.45434360  0.19628251    -0.23400
H1435       H  0.51632922  0.41973646  0.16025708     0.17700
C1436       C  0.47861472  0.43560302  0.12945894     0.25700
C1437       C  0.47180545  0.41532029  0.10798778    -0.12000
C1438       C  0.47393889  0.37845542  0.10646730    -0.26000
C1439       C  0.48269183  0.36215632  0.12781276     0.36600
C1440       C  0.48949663  0.38251247  0.14926443    -0.27600
F1441       F  0.47690486  0.47129626  0.12910181    -0.19700
H1442       H  0.46528225  0.42880993  0.09180866     0.15900
F1443       F  0.48491107  0.32664391  0.12777935    -0.23500
H1444       H  0.49632087  0.36947277  0.16518835     0.17800
C1445       C  0.55581604  0.65514270  0.09455267    -0.27500
C1446       C  0.56302606  0.62350086  0.10125227     0.06100
C1447       C  0.56867954  0.60313957  0.07806050     0.25700
C1448       C  0.56661005  0.61365628  0.04890221    -0.12000
C1449       C  0.55907229  0.64488967  0.04226345    -0.25900
C1450       C  0.55395674  0.66596890  0.06553413     0.36500
C1451       C  0.56336591  0.61062808  0.13212851     0.06100
F1452       F  0.57609883  0.57290460  0.08352134    -0.19700
H1453       H  0.57076147  0.59707605  0.03148041     0.15900
F1454       F  0.54643486  0.69614526  0.06037798    -0.23400
H1455       H  0.55102238  0.67091848  0.11179535     0.17700
C1456       C  0.56603731  0.63380127  0.15566894     0.25700
C1457       C  0.56432672  0.62229897  0.18467750    -0.12000
C1458       C  0.56003104  0.58743039  0.19088617    -0.26000
C1459       C  0.55812672  0.56377857  0.16727296     0.36600
C1460       C  0.55966833  0.57542829  0.13837769    -0.27600
F1461       F  0.57005735  0.66778895  0.15067416    -0.19700
H1462       H  0.56594401  0.64109207  0.20224766     0.15900
F1463       F  0.55412151  0.52967502  0.17181446    -0.23500
H1464       H  0.55728284  0.55713738  0.12081993     0.17800
C1465       C  0.67888606  0.65321700  0.13760754    -0.27500
C1466       C  0.67367061  0.61898302  0.13236520     0.06100
C1467       C  0.67050453  0.59705525  0.15652463     0.25700
C1468       C  0.67350195  0.60832044  0.18507660    -0.12000
C1469       C  0.67953997  0.64180424  0.19020624    -0.25900
C1470       C  0.68171869  0.66468700  0.16611842     0.36500
C1471       C  0.67373473  0.60486606  0.10193737     0.06100
F1472       F  0.66490636  0.56430062  0.15248296    -0.19700
H1473       H  0.67141705  0.59039300  0.20314859     0.15900
F1474       F  0.68739357  0.69743541  0.16975288    -0.23400
H1475       H  0.68162046  0.67049410  0.11947519     0.17700
C1476       C  0.66890286  0.62525376  0.07799692     0.25700
C1477       C  0.67187442  0.61453062  0.04920116    -0.12000
C1478       C  0.67951323  0.58306819  0.04374770    -0.26000
C1479       C  0.68331614  0.56141401  0.06774725     0.36600
C1480       C  0.68054997  0.57242211  0.09637238    -0.27600
F1481       F  0.66167361  0.65599892  0.08245165    -0.19700
H1482       H  0.66855817  0.63139761  0.03120100     0.15900
F1483       F  0.69060909  0.53064661  0.06386048    -0.23500
H1484       H  0.68458501  0.55639906  0.11428559     0.17800
C1485       C  0.62852347  0.65344100  0.30304249    -0.27500
C1486       C  0.62647555  0.62044804  0.31665844     0.06100
C1487       C  0.63838774  0.60193284  0.32735702     0.25700
C1488       C  0.65218539  0.61522337  0.32298300    -0.12000
C1489       C  0.65445514  0.64699586  0.30733633    -0.25900
C1490       C  0.64237181  0.66666108  0.29827292     0.36500
C1491       C  0.61213788  0.60377835  0.31659902     0.06100
F1492       F  0.63669090  0.57029889  0.34108219    -0.19700
H1493       H  0.66115856  0.59947879  0.33060098     0.15900
F1494       F  0.64387785  0.69756017  0.28336473    -0.23400
H1495       H  0.61940391  0.66805445  0.29463994     0.17700
C1496       C  0.60061958  0.61892295  0.33186434     0.25700
C1497       C  0.58676917  0.60550820  0.32830492    -0.12000
C1498       C  0.58410125  0.57706071  0.30909245    -0.26000
C1499       C  0.59587371  0.56054717  0.29528657     0.36600
C1500       C  0.60973413  0.57381724  0.29915518    -0.27600
F1501       F  0.60270866  0.64733529  0.34949660    -0.19700
H1502       H  0.57801167  0.61869481  0.33946478     0.15900
F1503       F  0.59396423  0.53319440  0.27645701    -0.23500
H1504       H  0.61854119  0.56180539  0.28724634     0.17800
C1505       C  0.75994749  0.55413026  0.43228865    -0.27500
C1506       C  0.74552577  0.54578332  0.42655121     0.06100
C1507       C  0.73954318  0.51619751  0.44077418     0.25700
C1508       C  0.74776557  0.49562185  0.46006390    -0.12000
C1509       C  0.76222080  0.50376965  0.46588921    -0.25900
C1510       C  0.76822279  0.53347787  0.45165385     0.36500
C1511       C  0.73692571  0.56699883  0.40501081     0.06100
F1512       F  0.72559820  0.50750487  0.43652320    -0.19700
H1513       H  0.74267879  0.47323017  0.47065087     0.15900
F1514       F  0.78207382  0.54268186  0.45631550    -0.23400
H1515       H  0.76491366  0.57644829  0.42135408     0.17700
C1516       C  0.73647725  0.60426934  0.40598473     0.25700
C1517       C  0.72887105  0.62362558  0.38467920    -0.12000
C1518       C  0.72146445  0.60638634  0.36191615    -0.26000
C1519       C  0.72158978  0.56896892  0.36160311     0.36600
C1520       C  0.72924462  0.54977177  0.38276218    -0.27600
F1521       F  0.74336045  0.62203638  0.42759733    -0.19700
H1522       H  0.72905084  0.65226108  0.38567703     0.15900
F1523       F  0.71492448  0.55064627  0.34001337    -0.23500
H1524       H  0.72951876  0.52117162  0.38117460     0.17800
C1525       C  0.74121517  0.44938742  0.23492572    -0.27500
C1526       C  0.74935670  0.47290489  0.25213007     0.06100
C1527       C  0.76140947  0.45966457  0.26703972     0.25700
C1528       C  0.76571313  0.42474895  0.26305593    -0.12000
C1529       C  0.75862412  0.40253449  0.24303227    -0.25900
C1530       C  0.74589585  0.41463691  0.22999721     0.36500
C1531       C  0.74553086  0.51115091  0.25368712     0.06100
F1532       F  0.76983741  0.48100402  0.28353921    -0.19700
H1533       H  0.77544077  0.41612944  0.27385802     0.15900
F1534       F  0.73855546  0.39401468  0.21090993    -0.23400
H1535       H  0.73150047  0.45829909  0.22428593     0.17700
C1536       C  0.74068273  0.52958546  0.22864807     0.25700
C1537       C  0.73577180  0.56441640  0.23105571    -0.12000
C1538       C  0.73625423  0.58205138  0.25804070    -0.26000
C1539       C  0.74239369  0.56497780  0.28235355     0.36600
C1540       C  0.74660433  0.52960817  0.28036603    -0.27600
F1541       F  0.74039854  0.51383378  0.20193396    -0.19700
H1542       H  0.73103077  0.57717628  0.21211435     0.15900
F1543       F  0.74298489  0.58126987  0.30882294    -0.23500
H1544       H  0.75004964  0.51632271  0.30016475     0.17800
C1545       C  0.54354867  0.33267030  0.37196740    -0.27500
C1546       C  0.53181087  0.35537961  0.37671780     0.06100
C1547       C  0.52067750  0.34431152  0.39534598     0.25700
C1548       C  0.52134201  0.31125180  0.40899466    -0.12000
C1549       C  0.53320890  0.28889380  0.40476354    -0.25900
C1550       C  0.54433202  0.29980736  0.38606514     0.36500
C1551       C  0.53128301  0.39055891  0.36233804     0.06100
F1552       F  0.50943181  0.36601170  0.40126367    -0.19700
H1553       H  0.51277255  0.30360730  0.42375042     0.15900
F1554       F  0.55582773  0.27855760  0.38113480    -0.23400
H1555       H  0.55212980  0.34042844  0.35729326     0.17700
C1556       C  0.54312074  0.41341417  0.36352546     0.25700
C1557       C  0.54281749  0.44573280  0.34867695    -0.12000
C1558       C  0.53069585  0.45606571  0.33252181    -0.26000
C1559       C  0.51865650  0.43372740  0.33209622     0.36600
C1560       C  0.51899951  0.40123093  0.34684763    -0.27600
F1561       F  0.55499802  0.40450417  0.37903848    -0.19700
H1562       H  0.55220812  0.46249678  0.34939381     0.15900
F1563       F  0.50691261  0.44219161  0.31600098    -0.23500
H1564       H  0.50982365  0.38384876  0.34537694     0.17800
C1565       C  0.48546275  0.35571386  0.57877817    -0.27500
C1566       C  0.48386149  0.31876018  0.57778493     0.06100
C1567       C  0.47440988  0.30260600  0.59784289     0.25700
C1568       C  0.46716910  0.32291517  0.61891318    -0.12000
C1569       C  0.46924301  0.35976525  0.62079469    -0.25900
C1570       C  0.47826749  0.37604898  0.59988483     0.36500
C1571       C  0.49258862  0.29735243  0.55675351     0.06100
F1572       F  0.47282936  0.26690828  0.59835384    -0.19700
H1573       H  0.46045478  0.30937074  0.63473427     0.15900
F1574       F  0.48057145  0.41150034  0.60030971    -0.23400
H1575       H  0.49254028  0.36888151  0.56339219     0.17700
C1576       C  0.48627927  0.27145398  0.53884440     0.25700
C1577       C  0.49467422  0.25159538  0.51936290    -0.12000
C1578       C  0.50956530  0.25713098  0.51692648    -0.26000
C1579       C  0.51586807  0.28315368  0.53486081     0.36600
C1580       C  0.50745099  0.30293278  0.55444491    -0.27600
F1581       F  0.47191042  0.26605396  0.53943007    -0.19700
H1582       H  0.48939104  0.23211695  0.50576586     0.15900
F1583       F  0.53016666  0.28943495  0.53374465    -0.23500
H1584       H  0.51260885  0.32254560  0.56811950     0.17800
C1585       C  0.50379626  0.11057992  0.32979871    -0.27500
C1586       C  0.50813127  0.07546994  0.32468656     0.06100
C1587       C  0.51932829  0.06147189  0.34190025     0.25700
C1588       C  0.52539784  0.08151454  0.36464177    -0.12000
C1589       C  0.52060140  0.11614696  0.37067399    -0.25900
C1590       C  0.50990850  0.13072845  0.35233481     0.36500
C1591       C  0.50049812  0.05337202  0.30235979     0.06100
F1592       F  0.52391799  0.02773467  0.33779815    -0.19700
H1593       H  0.53358842  0.06938273  0.37816894     0.15900
F1594       F  0.50485352  0.16399955  0.35679399    -0.23400
H1595       H  0.49542015  0.12235820  0.31652486     0.17700
C1596       C  0.48541558  0.05174978  0.30192947     0.25700
C1597       C  0.47826068  0.03103707  0.28111108    -0.12000
C1598       C  0.48587354  0.01104150  0.26021423    -0.26000
C1599       C  0.50099884  0.01260334  0.26067068     0.36600
C1600       C  0.50815740  0.03354695  0.28145354    -0.27600
F1601       F  0.47754072  0.06937963  0.32227027    -0.19700
H1602       H  0.46665796  0.03026142  0.28170971     0.15900
F1603       F  0.50893245  0.99431637  0.24083464    -0.23500
H1604       H  0.51975828  0.03454339  0.28100351     0.17800
C1605       C  0.50165494  0.95143092  0.50446526    -0.27500
C1606       C  0.49328942  0.97544310  0.48809828     0.06100
C1607       C  0.48059248  0.96348749  0.47502210     0.25700
C1608       C  0.47597827  0.92907820  0.47974154    -0.12000
C1609       C  0.48343744  0.90628870  0.49880732    -0.25900
C1610       C  0.49671969  0.91707943  0.51005928     0.36500
C1611       C  0.49750547  0.01303874  0.48527946     0.06100
F1612       F  0.47193861  0.98580749  0.45976300    -0.19700
H1613       H  0.46577931  0.92130946  0.47048303     0.15900
F1614       F  0.50430380  0.89574378  0.52832783    -0.23400
H1615       H  0.51173385  0.95972973  0.51393077     0.17700
C1616       C  0.50242287  0.03233575  0.50966207     0.25700
C1617       C  0.50705562  0.06719777  0.50612352    -0.12000
C1618       C  0.50631586  0.08362370  0.47857479    -0.26000
C1619       C  0.50054155  0.06522953  0.45470109     0.36600
C1620       C  0.49644806  0.03005877  0.45794342    -0.27600
F1621       F  0.50290761  0.01747364  0.53677381    -0.19700
H1622       H  0.51166840  0.08100601  0.52460847     0.15900
F1623       F  0.50016313  0.08011834  0.42757756    -0.23500
H1624       H  0.49295303  0.01574358  0.43871541     0.17800
C1625       C  0.69194045  0.84144488  0.33847286    -0.27500
C1626       C  0.70297779  0.84998332  0.35800491     0.06100
C1627       C  0.71338843  0.82430015  0.36476988     0.25700
C1628       C  0.71301251  0.79108482  0.35132684    -0.12000
C1629       C  0.70216111  0.78272030  0.33118803    -0.25900
C1630       C  0.69149457  0.80823209  0.32512657     0.36500
C1631       C  0.70335151  0.88543985  0.37168815     0.06100
F1632       F  0.72380609  0.83117274  0.38467751    -0.19700
H1633       H  0.72129135  0.77195199  0.35653524     0.15900
F1634       F  0.68097825  0.80183407  0.30531506    -0.23400
H1635       H  0.68380897  0.86087588  0.33305540     0.17700
C1636       C  0.71572495  0.90652374  0.37039990     0.25700
C1637       C  0.71612853  0.93906800  0.38492114    -0.12000
C1638       C  0.70418131  0.95129095  0.40083963    -0.26000
C1639       C  0.69157852  0.93068798  0.40093989     0.36600
C1640       C  0.69122930  0.89818850  0.38646915    -0.27600
F1641       F  0.72739869  0.89569848  0.35502313    -0.19700
H1642       H  0.72590705  0.95440937  0.38408790     0.15900
F1643       F  0.67970864  0.94111353  0.41586815    -0.23500
H1644       H  0.68156540  0.88238863  0.38753400     0.17800
C1645       C  0.61163193  0.16384397  0.44011391    -0.27500
C1646       C  0.61421237  0.13090099  0.42669082     0.06100
C1647       C  0.60265594  0.11281417  0.41409294     0.25700
C1648       C  0.58878065  0.12661898  0.41604661    -0.12000
C1649       C  0.58597330  0.15857530  0.43101035    -0.25900
C1650       C  0.59768604  0.17760210  0.44234138     0.36500
C1651       C  0.62883551  0.11502065  0.42694754     0.06100
F1652       F  0.60473405  0.08144030  0.40024962    -0.19700
H1653       H  0.58011294  0.11121794  0.40686618     0.15900
F1654       F  0.59566498  0.20859265  0.45677253    -0.23400
H1655       H  0.62038112  0.17829988  0.45001438     0.17700
C1656       C  0.64072426  0.13476588  0.41768848     0.25700
C1657       C  0.65454670  0.12086240  0.42027378    -0.12000
C1658       C  0.65696579  0.08703113  0.43251079    -0.26000
C1659       C  0.64497984  0.06654592  0.44053374     0.36600
C1660       C  0.63107735  0.08046453  0.43768683    -0.27600
F1661       F  0.63900134  0.16780059  0.40644899    -0.19700
H1662       H  0.66343407  0.13746690  0.41369627     0.15900
F1663       F  0.64665226  0.03361263  0.45197879    -0.23500
H1664       H  0.62206529  0.06469652  0.44496011     0.17800
C1665       C  0.73795808  0.12674974  0.32746922    -0.27500
C1666       C  0.73809863  0.16390313  0.32902617     0.06100
C1667       C  0.73000533  0.18061009  0.35113825     0.25700
C1668       C  0.72237234  0.16058035  0.37158718    -0.12000
C1669       C  0.72281694  0.12337655  0.37108345    -0.25900
C1670       C  0.73048821  0.10659579  0.34830649     0.36500
C1671       C  0.74663879  0.18527206  0.30779493     0.06100
F1672       F  0.73007958  0.21635624  0.35409582    -0.19700
H1673       H  0.71672523  0.17446075  0.38889676     0.15900
F1674       F  0.73116525  0.07077326  0.34657079    -0.23400
H1675       H  0.74379541  0.11321623  0.31024021     0.17700
C1676       C  0.76094615  0.17660835  0.30078185     0.25700
C1677       C  0.76884330  0.19786822  0.28133630    -0.12000
C1678       C  0.76270564  0.22832676  0.26870717    -0.26000
C1679       C  0.74839451  0.23693304  0.27604052     0.36600
C1680       C  0.74050862  0.21541690  0.29493218    -0.27600
F1681       F  0.76743086  0.14815968  0.31327673    -0.19700
H1682       H  0.77979899  0.19050843  0.27625957     0.15900
F1683       F  0.74184657  0.26616943  0.26499115    -0.23500
H1684       H  0.72945911  0.22243280  0.29946437     0.17800
C1685       C  0.74175084  0.28219213  0.50140640    -0.27500
C1686       C  0.75008063  0.25975827  0.48344790     0.06100
C1687       C  0.76201165  0.27397362  0.46881478     0.25700
C1688       C  0.76603307  0.30881432  0.47371328    -0.12000
C1689       C  0.75886017  0.32977223  0.49460460    -0.25900
C1690       C  0.74619769  0.31686157  0.50733430     0.36500
C1691       C  0.74673294  0.22145456  0.48097900     0.06100
F1692       F  0.77066611  0.25346627  0.45193251    -0.19700
H1693       H  0.77573487  0.31823276  0.46322910     0.15900
F1694       F  0.73886595  0.33633797  0.52735592    -0.23400
H1695       H  0.73216468  0.27235357  0.51200011     0.17700
C1696       C  0.74261018  0.20158286  0.50577663     0.25700
C1697       C  0.73842058  0.16634924  0.50269147    -0.12000
C1698       C  0.73878860  0.14995699  0.47514788    -0.26000
C1699       C  0.74414858  0.16867337  0.45090363     0.36600
C1700       C  0.74774529  0.20430797  0.45369085    -0.27600
F1701       F  0.74231761  0.21630814  0.53289670    -0.19700
H1702       H  0.73420179  0.15232547  0.52155399     0.15900
F1703       F  0.74447951  0.15367191  0.42388872    -0.23500
H1704       H  0.75068384  0.21882680  0.43411770     0.17800
C1705       C  0.52261414  0.83553435  0.88826336    -0.27500
C1706       C  0.53409629  0.84531438  0.87005132     0.06100
C1707       C  0.54552502  0.82133802  0.86612320     0.25700
C1708       C  0.54561111  0.78885255  0.88093153    -0.12000
C1709       C  0.53416690  0.77931229  0.89929942    -0.25900
C1710       C  0.52254987  0.80279823  0.90252855     0.36500
C1711       C  0.53425650  0.88088094  0.85606885     0.06100
F1712       F  0.55655182  0.82915000  0.84779056    -0.19700
H1713       H  0.55462694  0.77108702  0.87802521     0.15900
F1714       F  0.51146890  0.79498628  0.92073436    -0.23400
H1715       H  0.51383070  0.85370179  0.89215532     0.17700
C1716       C  0.52198874  0.89455078  0.84211172     0.25700
C1717       C  0.52227401  0.92814949  0.82927662    -0.12000
C1718       C  0.53482650  0.94861715  0.82964437    -0.26000
C1719       C  0.54705855  0.93511808  0.84381433     0.36600
C1720       C  0.54669535  0.90174723  0.85709789    -0.27600
F1721       F  0.50986631  0.87496493  0.83988085    -0.19700
H1722       H  0.51279072  0.93759874  0.81808593     0.15900
F1723       F  0.55936057  0.95415269  0.84496718    -0.23500
H1724       H  0.55616217  0.89225017  0.86831528     0.17800
C1725       C  0.49878026  0.21021661  0.77700098    -0.27500
C1726       C  0.49802453  0.22468140  0.74865717     0.06100
C1727       C  0.50155933  0.20329463  0.72439300     0.25700
C1728       C  0.50636403  0.16865340  0.72876999    -0.12000
C1729       C  0.50709172  0.15457801  0.75716283    -0.25900
C1730       C  0.50298194  0.17528623  0.78120387     0.36500
C1731       C  0.49323474  0.26171178  0.74479405     0.06100
F1732       F  0.50044726  0.21581888  0.69656497    -0.19700
H1733       H  0.50986783  0.15310060  0.71014940     0.15900
F1734       F  0.50423767  0.16271251  0.80899161    -0.23400
H1735       H  0.49650531  0.22627320  0.79609553     0.17700
C1736       C  0.48134132  0.27431957  0.76055730     0.25700
C1737       C  0.47615643  0.30817554  0.75545242    -0.12000
C1738       C  0.48226403  0.32979347  0.73368628    -0.26000
C1739       C  0.49470662  0.31821996  0.71912508     0.36600
C1740       C  0.50021847  0.28446285  0.72493357    -0.27600
F1741       F  0.47399057  0.25309740  0.77932533    -0.19700
H1742       H  0.46661601  0.31646694  0.76717277     0.15900
F1743       F  0.50091455  0.33823623  0.69788642    -0.23500
H1744       H  0.50966073  0.27566953  0.71318134     0.17800
C1745       C  0.49868293  0.12727674  0.89844976    -0.27500
C1746       C  0.50300478  0.16190842  0.90537566     0.06100
C1747       C  0.51568349  0.17480664  0.89219773     0.25700
C1748       C  0.52309388  0.15459329  0.87121617    -0.12000
C1749       C  0.51839982  0.12053315  0.86340385    -0.25900
C1750       C  0.50628503  0.10672451  0.87807953     0.36500
C1751       C  0.49419722  0.18408085  0.92608318     0.06100
F1752       F  0.52108917  0.20681011  0.89976654    -0.19700
H1753       H  0.53244385  0.16594200  0.86071386     0.15900
F1754       F  0.50127180  0.07390653  0.87183108    -0.23400
H1755       H  0.48906767  0.11628767  0.90815974     0.17700
C1756       C  0.49168830  0.22041733  0.92073833     0.25700
C1757       C  0.48393064  0.24097118  0.94084827    -0.12000
C1758       C  0.47783784  0.22566172  0.96598009    -0.26000
C1759       C  0.47960103  0.18916269  0.97071312     0.36600
C1760       C  0.48784221  0.16875577  0.95119181    -0.27600
F1761       F  0.49630530  0.23604655  0.89564098    -0.19700
H1762       H  0.48250028  0.26896389  0.93657933     0.15900
F1763       F  0.47388590  0.17354166  0.99487019    -0.23500
H1764       H  0.48944810  0.14098950  0.95605297     0.17800
C1765       C  0.55968010  0.16267538  0.59745262    -0.27500
C1766       C  0.56481082  0.12841444  0.60305968     0.06100
C1767       C  0.56849168  0.10658861  0.57922649     0.25700
C1768       C  0.56611119  0.11803159  0.55042709    -0.12000
C1769       C  0.56007924  0.15150686  0.54479034    -0.25900
C1770       C  0.55736220  0.17425943  0.56871820     0.36500
C1771       C  0.56427806  0.11411792  0.63339426     0.06100
F1772       F  0.57396200  0.07372862  0.58384359    -0.19700
H1773       H  0.56856864  0.10015671  0.53256858     0.15900
F1774       F  0.55166240  0.20699163  0.56465910    -0.23400
H1775       H  0.55663693  0.17983671  0.61542185     0.17700
C1776       C  0.56979698  0.13304843  0.65740089     0.25700
C1777       C  0.56738937  0.12109164  0.68613487    -0.12000
C1778       C  0.55947733  0.09005298  0.69140905    -0.26000
C1779       C  0.55432142  0.07073331  0.66719723     0.36600
C1780       C  0.55672063  0.08271236  0.63867099    -0.27600
F1781       F  0.57737694  0.16323417  0.65307277    -0.19700
H1782       H  0.57154552  0.13640095  0.70427387     0.15900
F1783       F  0.54625389  0.04120624  0.67094533    -0.23500
H1784       H  0.55205531  0.06814508  0.62061807     0.17800
C1785       C  0.49428366  0.97106470  0.67965186    -0.27500
C1786       C  0.49569394  0.93398181  0.68128207     0.06100
C1787       C  0.50516468  0.91955584  0.70223296     0.25700
C1788       C  0.51310662  0.94170152  0.72060596    -0.12000
C1789       C  0.51154777  0.97861723  0.71911277    -0.25900
C1790       C  0.50197273  0.99316334  0.69857568     0.36500
C1791       C  0.48785530  0.91078167  0.66020286     0.06100
F1792       F  0.50653043  0.88399554  0.70550855    -0.19700
H1793       H  0.52023310  0.92991125  0.73660088     0.15900
F1794       F  0.50036274  0.02877298  0.69619412    -0.23400
H1795       H  0.48741482  0.98307170  0.66332747     0.17700
C1796       C  0.47344666  0.91730924  0.65257785     0.25700
C1797       C  0.46676911  0.89735572  0.63059489    -0.12000
C1798       C  0.47415939  0.86993948  0.61619633    -0.26000
C1799       C  0.48831433  0.86226006  0.62494143     0.36600
C1800       C  0.49506648  0.88270471  0.64635332    -0.27600
F1801       F  0.46580898  0.94307322  0.66624609    -0.19700
H1802       H  0.45585861  0.90378094  0.62446786     0.15900
F1803       F  0.49603990  0.83646899  0.61150248    -0.23500
H1804       H  0.50621499  0.87736101  0.65120612     0.17800
C1805       C  0.69987764  0.41610375  0.86553234    -0.27500
C1806       C  0.71001724  0.38971799  0.87221907     0.06100
C1807       C  0.72068762  0.39707687  0.89313407     0.25700
C1808       C  0.72100038  0.42985677  0.90730908    -0.12000
C1809       C  0.71051926  0.45557277  0.90144995    -0.25900
C1810       C  0.69999351  0.44856081  0.88024688     0.36500
C1811       C  0.70929346  0.35450291  0.85776250     0.06100
F1812       F  0.73035117  0.37193138  0.90105641    -0.19700
H1813       H  0.72899847  0.43443674  0.92406900     0.15900
F1814       F  0.68977409  0.47301958  0.87391526    -0.23400
H1815       H  0.69174227  0.41143399  0.84909418     0.17700
C1816       C  0.69624181  0.33608687  0.85552962     0.25700
C1817       C  0.69573292  0.30301333  0.84184093    -0.12000
C1818       C  0.70820583  0.28740866  0.83027428    -0.26000
C1819       C  0.72127660  0.30578267  0.83268075     0.36600
C1820       C  0.72175015  0.33895800  0.84616586    -0.27600
F1821       F  0.68399634  0.34972605  0.86701342    -0.19700
H1822       H  0.68552290  0.28960064  0.84027363     0.15900
F1823       F  0.73354396  0.29244029  0.82105713    -0.23500
H1824       H  0.73187423  0.35285112  0.84707231     0.17800
C1825       C  0.67324039  0.10516023  0.65704100    -0.27500
C1826       C  0.67935062  0.12483044  0.63402452     0.06100
C1827       C  0.68622178  0.15693899  0.64039438     0.25700
C1828       C  0.68732314  0.16855965  0.66920850    -0.12000
C1829       C  0.68184174  0.14825904  0.69248777    -0.25900
C1830       C  0.67448346  0.11666079  0.68611317     0.36500
C1831       C  0.67954029  0.11109785  0.60365171     0.06100
F1832       F  0.69271559  0.17608681  0.61895670    -0.19700
H1833       H  0.69315482  0.19278509  0.67332828     0.15900
F1834       F  0.66872599  0.09658386  0.70784484    -0.23400
H1835       H  0.66775262  0.08056952  0.65253380     0.17700
C1836       C  0.68481932  0.07701578  0.59760968     0.25700
C1837       C  0.68711747  0.06644997  0.56864778    -0.12000
C1838       C  0.68433760  0.08972933  0.54519069    -0.26000
C1839       C  0.67840681  0.12324047  0.55128686     0.36600
C1840       C  0.67593819  0.13356133  0.58022628    -0.27600
F1841       F  0.68866281  0.05477034  0.61966885    -0.19700
H1842       H  0.69167764  0.04051830  0.56471044     0.15900
F1843       F  0.67532437  0.14651143  0.52946151    -0.23500
H1844       H  0.67165759  0.15972843  0.58442187     0.17800
C1845       C  0.63754706  0.12338388  0.83112152    -0.27500
C1846       C  0.62752771  0.12882384  0.80871134     0.06100
C1847       C  0.63081113  0.15232507  0.78574408     0.25700
C1848       C  0.64426103  0.16844784  0.78432524    -0.12000
C1849       C  0.65476348  0.16086824  0.80545803    -0.25900
C1850       C  0.65111508  0.13898644  0.82946505     0.36500
C1851       C  0.61387113  0.10906802  0.80861042     0.06100
F1852       F  0.62116302  0.15867610  0.76411313    -0.19700
H1853       H  0.64679474  0.18480875  0.76547762     0.15900
F1854       F  0.66088817  0.13124368  0.85055661    -0.23400
H1855       H  0.63510337  0.10565397  0.84914740     0.17700
C1856       C  0.61066463  0.08578144  0.78555886     0.25700
C1857       C  0.59710797  0.07030783  0.78367894    -0.12000
C1858       C  0.58644795  0.07824510  0.80448358    -0.26000
C1859       C  0.59001955  0.09975435  0.82861582     0.36600
C1860       C  0.60367760  0.11476840  0.83070784    -0.27600
F1861       F  0.62049430  0.07903252  0.76429764    -0.19700
H1862       H  0.59466739  0.05404743  0.76480954     0.15900
F1863       F  0.58012892  0.10754664  0.84949208    -0.23500
H1864       H  0.60606625  0.13230841  0.84881304     0.17800
C1865       C  0.74941521  0.25990426  0.68055569    -0.27500
C1866       C  0.74766873  0.29698925  0.67967917     0.06100
C1867       C  0.73786357  0.31241452  0.69961186     0.25700
C1868       C  0.72976106  0.29129592  0.71876061    -0.12000
C1869       C  0.73153328  0.25438802  0.71951246    -0.25900
C1870       C  0.74166814  0.23893015  0.70052156     0.36500
C1871       C  0.75541901  0.31909213  0.65713054     0.06100
F1872       F  0.73627545  0.34807334  0.70119959    -0.19700
H1873       H  0.72229694  0.30399813  0.73361016     0.15900
F1874       F  0.74376933  0.20336937  0.70055203    -0.23400
H1875       H  0.75654455  0.24683762  0.66529098     0.17700
C1876       C  0.76970403  0.31195299  0.64848383     0.25700
C1877       C  0.77625279  0.33158926  0.62584599    -0.12000
C1878       C  0.76894858  0.35954325  0.61190741    -0.26000
C1879       C  0.75489832  0.36742990  0.62128937     0.36600
C1880       C  0.74822556  0.34714815  0.64307734    -0.27600
F1881       F  0.77744558  0.28624848  0.66200290    -0.19700
H1882       H  0.78706769  0.32489785  0.61919923     0.15900
F1883       F  0.74719723  0.39361172  0.60827845    -0.23500
H1884       H  0.73714116  0.35288717  0.64820773     0.17800
C1885       C  0.21875647  0.32810069  0.36394195    -0.27500
C1886       C  0.20690207  0.35064946  0.36027466     0.06100
C1887       C  0.19517084  0.33923929  0.34369180     0.25700
C1888       C  0.19520117  0.30572450  0.33135107    -0.12000
C1889       C  0.20705948  0.28302341  0.33457949    -0.25900
C1890       C  0.21889340  0.29446457  0.35112359     0.36500
C1891       C  0.20667291  0.38610407  0.37361484     0.06100
F1892       F  0.18387849  0.36105751  0.33842985    -0.19700
H1893       H  0.18605368  0.29817270  0.31817723     0.15900
F1894       F  0.23055941  0.27341699  0.35478624    -0.23400
H1895       H  0.22789136  0.33658882  0.37675494     0.17700
C1896       C  0.19493628  0.39675184  0.39076562     0.25700
C1897       C  0.19450049  0.43058055  0.40265022    -0.12000
C1898       C  0.20587398  0.45429926  0.39821989    -0.26000
C1899       C  0.21763198  0.44366279  0.38086534     0.36600
C1900       C  0.21797646  0.40977272  0.36867429    -0.27600
F1901       F  0.18409071  0.37399279  0.39687354    -0.19700
H1902       H  0.18544114  0.43764915  0.41634016     0.15900
F1903       F  0.22883077  0.46573488  0.37584457    -0.23500
H1904       H  0.22704021  0.40201374  0.35526180     0.17800
C1905       C  0.23097739  0.43812753  0.54997334    -0.27500
C1906       C  0.24600976  0.43877972  0.55078068     0.06100
C1907       C  0.25334250  0.46058648  0.53074998     0.25700
C1908       C  0.24573245  0.48157231  0.51063849    -0.12000
C1909       C  0.23063517  0.48127020  0.50994042    -0.25900
C1910       C  0.22334489  0.45911900  0.52996784     0.36500
C1911       C  0.25382487  0.41724946  0.57307214     0.06100
F1912       F  0.26788036  0.46106830  0.53024271    -0.19700
H1913       H  0.25171174  0.49791084  0.49540217     0.15900
F1914       F  0.20881600  0.45807208  0.53070098    -0.23400
H1915       H  0.22509776  0.42171134  0.56532649     0.17700
C1916       C  0.26311103  0.43330830  0.59329261     0.25700
C1917       C  0.26942768  0.41334145  0.61579383    -0.12000
C1918       C  0.26664914  0.37686528  0.61878463    -0.26000
C1919       C  0.25773532  0.36058964  0.59774998     0.36600
C1920       C  0.25136366  0.38068524  0.57535724    -0.27600
F1921       F  0.26546058  0.46872801  0.59229798    -0.19700
H1922       H  0.27610958  0.42687991  0.63158558     0.15900
F1923       F  0.25483864  0.32543303  0.59910554    -0.23500
H1924       H  0.24430346  0.36771823  0.55991932     0.17800
C1925       C  0.23447760  0.63585902  0.32068310    -0.27500
C1926       C  0.23686694  0.67233489  0.32481151     0.06100
C1927       C  0.23130295  0.68827057  0.35034545     0.25700
C1928       C  0.22390842  0.66812275  0.37125993    -0.12000
C1929       C  0.22213471  0.63135904  0.36787487    -0.25900
C1930       C  0.22733718  0.61549761  0.34200882     0.36500
C1931       C  0.24540838  0.69346582  0.30304541     0.06100
F1932       F  0.23369582  0.72300714  0.35603984    -0.19700
H1933       H  0.22023703  0.68118290  0.39104385     0.15900
F1934       F  0.22564694  0.58028718  0.33738467    -0.23400
H1935       H  0.23828732  0.62291732  0.30096745     0.17700
C1936       C  0.25842228  0.68055343  0.29141676     0.25700
C1937       C  0.26657929  0.70123419  0.27198136    -0.12000
C1938       C  0.26201870  0.73527725  0.26350346    -0.26000
C1939       C  0.24897816  0.74814081  0.27507753     0.36600
C1940       C  0.24080917  0.72740645  0.29438518    -0.27600
F1941       F  0.26352534  0.64831252  0.29946291    -0.19700
H1942       H  0.27651971  0.69045175  0.26349484     0.15900
F1943       F  0.24417796  0.78107718  0.26823856    -0.23500
H1944       H  0.23078014  0.73802080  0.30256053     0.17800
C1945       C  0.24884273  0.70570566  0.45555951    -0.27500
C1946       C  0.24767683  0.72212218  0.48304049     0.06100
C1947       C  0.24194495  0.70304356  0.50687090     0.25700
C1948       C  0.23638011  0.66928595  0.50250136    -0.12000
C1949       C  0.23703634  0.65369270  0.47471121    -0.25900
C1950       C  0.24384103  0.67145672  0.45153516     0.36500
C1951       C  0.25221821  0.75921359  0.48651070     0.06100
F1952       F  0.24144443  0.71726514  0.53416878    -0.19700
H1953       H  0.23107130  0.65583344  0.52048174     0.15900
F1954       F  0.24437786  0.65712217  0.42428163    -0.23400
H1955       H  0.25303498  0.71992939  0.43678697     0.17700
C1956       C  0.26527301  0.77071877  0.47459773     0.25700
C1957       C  0.27000166  0.80485644  0.47993694    -0.12000
C1958       C  0.26215551  0.82775709  0.49824547    -0.26000
C1959       C  0.24862085  0.81722667  0.50846341     0.36600
C1960       C  0.24364347  0.78323635  0.50229068    -0.27600
F1961       F  0.27402179  0.74827695  0.45970763    -0.19700
H1962       H  0.28041921  0.81240705  0.47148734     0.15900
F1963       F  0.24072218  0.83851172  0.52619290    -0.23500
H1964       H  0.23330301  0.77522000  0.51080761     0.17800
C1965       C  0.04460106  0.83916543  0.38696378    -0.27500
C1966       C  0.03278301  0.84845200  0.36951487     0.06100
C1967       C  0.02146116  0.82397687  0.36694724     0.25700
C1968       C  0.02195280  0.79141363  0.38195515    -0.12000
C1969       C  0.03385142  0.78216823  0.39931698    -0.25900
C1970       C  0.04522889  0.80659141  0.40147205     0.36500
C1971       C  0.03292208  0.88295162  0.35328648     0.06100
F1972       F  0.01013831  0.83090340  0.34920935    -0.19700
H1973       H  0.01306324  0.77326509  0.37974185     0.15900
F1974       F  0.05690302  0.79961901  0.41825611    -0.23400
H1975       H  0.05343248  0.85741904  0.38958854     0.17700
C1976       C  0.02099918  0.90595839  0.35267485     0.25700
C1977       C  0.02165311  0.93824261  0.33728104    -0.12000
C1978       C  0.03426189  0.94865689  0.32262202    -0.26000
C1979       C  0.04625397  0.92583824  0.32391124     0.36600
C1980       C  0.04549943  0.89355538  0.33881877    -0.27600
F1981       F  0.00885043  0.89781502  0.36758768    -0.19700
H1982       H  0.01227334  0.95516267  0.33693433     0.15900
F1983       F  0.05872560  0.93407503  0.31017224    -0.23500
H1984       H  0.05483928  0.87647472  0.33873829     0.17800
C1985       C  0.10162414  0.60687075  0.39931370    -0.27500
C1986       C  0.11290140  0.62154091  0.41536311     0.06100
C1987       C  0.11033686  0.65137052  0.43293525     0.25700
C1988       C  0.09653791  0.66545528  0.43534294    -0.12000
C1989       C  0.08500205  0.64999924  0.42033401    -0.25900
C1990       C  0.08779234  0.62104108  0.40152547     0.36500
C1991       C  0.12737279  0.60576449  0.41439307     0.06100
F1992       F  0.12108253  0.66575023  0.44897605    -0.19700
H1993       H  0.09478604  0.68737385  0.45021007     0.15900
F1994       F  0.07710509  0.60547304  0.38609511    -0.23400
H1995       H  0.10350636  0.58409362  0.38541756     0.17700
C1996       C  0.13035088  0.57354390  0.42859243     0.25700
C1997       C  0.14457998  0.56252655  0.43248161    -0.12000
C1998       C  0.15600767  0.58341469  0.42210324    -0.26000
C1999       C  0.15277729  0.61412161  0.40559796     0.36600
C2000       C  0.13861504  0.62519581  0.40211692    -0.27600
F2001       F  0.11958815  0.55411505  0.44051093    -0.19700
H2002       H  0.14664748  0.53872719  0.44507148     0.15900
F2003       F  0.16328308  0.63480469  0.39420955    -0.23500
H2004       H  0.13643435  0.64992818  0.39086974     0.17800
C2005       C  0.97976941  0.55005314  0.29934765    -0.27500
C2006       C  0.99478694  0.54793851  0.30134909     0.06100
C2007       C  0.00203568  0.52402329  0.28288586     0.25700
C2008       C  0.99442621  0.50250807  0.26333749    -0.12000
C2009       C  0.97936609  0.50418978  0.26147924    -0.25900
C2010       C  0.97212384  0.52857962  0.27971830     0.36500
C2011       C  0.00272734  0.56928406  0.32366670     0.06100
F2012       F  0.01654939  0.52181373  0.28337203    -0.19700
H2013       H  0.00042080  0.48456311  0.24945847     0.15900
F2014       F  0.95763651  0.53152858  0.27897536    -0.23400
H2015       H  0.97388431  0.56789203  0.31351434     0.17700
C2016       C  0.00034382  0.60589734  0.32698506     0.25700
C2017       C  0.00721019  0.62489339  0.34939312    -0.12000
C2018       C  0.01665761  0.60796137  0.36904388    -0.26000
C2019       C  0.01934960  0.57146111  0.36501460     0.36600
C2020       C  0.01245689  0.55257504  0.34269751    -0.27600
F2021       F  0.99140238  0.62339531  0.30849668    -0.19700
H2022       H  0.00490515  0.65285354  0.35165662     0.15900
F2023       F  0.02822812  0.55342440  0.38327743    -0.23500
H2024       H  0.01440630  0.52440110  0.34089083     0.17800
C2025       C  0.98969230  0.53525376  0.48377937    -0.27500
C2026       C  0.99827727  0.51203817  0.50048946     0.06100
C2027       C  0.01078849  0.52508815  0.51357550     0.25700
C2028       C  0.01500065  0.55979362  0.50857029    -0.12000
C2029       C  0.00746022  0.58157481  0.48877188    -0.25900
C2030       C  0.99429330  0.56977078  0.47768776     0.36500
C2031       C  0.99494627  0.47373611  0.50176868     0.06100
F2032       F  0.01986286  0.50343262  0.52844827    -0.19700
H2033       H  0.02511857  0.56828968  0.51773994     0.15900
F2034       F  0.98660639  0.59006571  0.45880176    -0.23400
H2035       H  0.97984955  0.52595632  0.47395600     0.17700
C2036       C  0.99613077  0.45443682  0.52812817     0.25700
C2037       C  0.99308167  0.41834084  0.52865009    -0.12000
C2038       C  0.98814693  0.40127802  0.50337113    -0.26000
C2039       C  0.98715754  0.42021222  0.47695177     0.36600
C2040       C  0.99078268  0.45599479  0.47609018    -0.27600
F2041       F  0.99917908  0.47082701  0.55382371    -0.19700
H2042       H  0.99323864  0.40450324  0.54951649     0.15900
F2043       F  0.98196029  0.40451591  0.45242794    -0.23500
H2044       H  0.98998830  0.47008491  0.45542939     0.17800
C2045       C  0.19654952  0.89417433  0.89576451    -0.27500
C2046       C  0.20730003  0.88637030  0.87521595     0.06100
C2047       C  0.21786684  0.91197485  0.86933037     0.25700
C2048       C  0.21792709  0.94409970  0.88460455    -0.12000
C2049       C  0.20731202  0.95164458  0.90559676    -0.25900
C2050       C  0.19647063  0.92637973  0.91072346     0.36500
C2051       C  0.20723253  0.85159325  0.86004625     0.06100
F2052       F  0.22796255  0.90629078  0.84840228    -0.19700
H2053       H  0.22627377  0.96316880  0.87990084     0.15900
F2054       F  0.18601223  0.93210056  0.93090652    -0.23400
H2055       H  0.18830203  0.87492936  0.90068717     0.17700
C2056       C  0.21965959  0.83054537  0.85830607     0.25700
C2057       C  0.21933283  0.79785405  0.84395043    -0.12000
C2058       C  0.20659884  0.78522535  0.83128125    -0.26000
C2059       C  0.19407723  0.80603772  0.83371441     0.36600
C2060       C  0.19445799  0.83876884  0.84788716    -0.27600
F2061       F  0.23205611  0.84116647  0.87102815    -0.19700
H2062       H  0.22912264  0.78248810  0.84265876     0.15900
F2063       F  0.18147674  0.79532654  0.82189898    -0.23500
H2064       H  0.18473829  0.85444263  0.84900081     0.17800
C2065       C  0.17444607  0.60563347  0.65322667    -0.27500
C2066       C  0.17952214  0.62702287  0.63015967     0.06100
C2067       C  0.18610114  0.65944453  0.63707893     0.25700
C2068       C  0.18800394  0.66939402  0.66629712    -0.12000
C2069       C  0.18364122  0.64713282  0.68939785    -0.25900
C2070       C  0.17660678  0.61528087  0.68253162     0.36500
C2071       C  0.17908899  0.61425887  0.59926045     0.06100
F2072       F  0.19152318  0.68064451  0.61572009    -0.19700
H2073       H  0.19351435  0.69396707  0.67078096     0.15900
F2074       F  0.17197634  0.59316959  0.70402383    -0.23400
H2075       H  0.16905517  0.58094823  0.64856898     0.17700
C2076       C  0.18352713  0.57964439  0.59228542     0.25700
C2077       C  0.18497777  0.56923577  0.56306678    -0.12000
C2078       C  0.18224833  0.59308105  0.54000706    -0.26000
C2079       C  0.17703137  0.62711102  0.54692262     0.36600
C2080       C  0.17539212  0.63738009  0.57624286    -0.27600
F2081       F  0.18743499  0.55645679  0.61360697    -0.19700
H2082       H  0.18896281  0.54285549  0.55860005     0.15900
F2083       F  0.17388651  0.65088892  0.52550865    -0.23500
H2084       H  0.17158340  0.66384128  0.58095435     0.17800
C2085       C  0.25474040  0.45160913  0.76950358    -0.27500
C2086       C  0.24392351  0.46765433  0.75282961     0.06100
C2087       C  0.23673005  0.44739740  0.73148409     0.25700
C2088       C  0.24160530  0.41338514  0.72445875    -0.12000
C2089       C  0.25354644  0.39918844  0.73892602    -0.25900
C2090       C  0.25934489  0.41748843  0.76303917     0.36500
C2091       C  0.24131680  0.50620002  0.75584371     0.06100
F2092       F  0.22553951  0.46121681  0.71629152    -0.19700
H2093       H  0.23688677  0.39963823  0.70604357     0.15900
F2094       F  0.27051472  0.40384140  0.77847179    -0.23400
H2095       H  0.26043714  0.46634551  0.78612143     0.17700
C2096       C  0.24057692  0.52234241  0.78361667     0.25700
C2097       C  0.23817492  0.55870738  0.78588271    -0.12000
C2098       C  0.23604661  0.57932452  0.76065634    -0.26000
C2099       C  0.23732610  0.56364603  0.73294421     0.36600
C2100       C  0.24020223  0.52748976  0.73059242    -0.27600
F2101       F  0.24120885  0.50274055  0.80857013    -0.19700
H2102       H  0.23669112  0.57018333  0.80743247     0.15900
F2103       F  0.23510365  0.58301079  0.70825343    -0.23500
H2104       H  0.24124648  0.51598702  0.70896836     0.17800
C2105       C  0.23889638  0.61035122  0.90558761    -0.27500
C2106       C  0.23682353  0.57367227  0.90825250     0.06100
C2107       C  0.22699532  0.55716034  0.88928789     0.25700
C2108       C  0.21994611  0.57668328  0.86746030    -0.12000
C2109       C  0.22247695  0.61314956  0.86389000    -0.25900
C2110       C  0.23186555  0.62992694  0.88376047     0.36500
C2111       C  0.24510775  0.55265881  0.93028970     0.06100
F2112       F  0.22473412  0.52173005  0.89080409    -0.19700
H2113       H  0.21290042  0.56279805  0.85255692     0.15900
F2114       F  0.23472248  0.66504731  0.88159236    -0.23400
H2115       H  0.24614771  0.62390989  0.92027776     0.17700
C2116       C  0.26006948  0.55641862  0.93315133     0.25700
C2117       C  0.26774646  0.53546028  0.95317949    -0.12000
C2118       C  0.26073873  0.51020423  0.97080668    -0.26000
C2119       C  0.24571858  0.50693507  0.96816028     0.36600
C2120       C  0.23808278  0.52796082  0.94826179    -0.27600
F2121       F  0.26736840  0.57957330  0.91595179    -0.19700
H2122       H  0.27924878  0.53879321  0.95462464     0.15900
F2123       F  0.23827534  0.48356422  0.98488436    -0.23500
H2124       H  0.22655781  0.52497565  0.94699040     0.17800
C2125       C  0.23791813  0.81346055  0.69950835    -0.27500
C2126       C  0.24747353  0.79776445  0.67942732     0.06100
C2127       C  0.24915672  0.76068386  0.68006966     0.25700
C2128       C  0.24140801  0.74004265  0.70020363    -0.12000
C2129       C  0.23161948  0.75575930  0.71972750    -0.25900
C2130       C  0.23000901  0.79277898  0.71928435     0.36500
C2131       C  0.25519942  0.82011110  0.65737203     0.06100
F2132       F  0.25789971  0.74421785  0.66056113    -0.19700
H2133       H  0.24282950  0.71158922  0.70011576     0.15900
F2134       F  0.22111138  0.80910433  0.73859414    -0.23400
H2135       H  0.23660363  0.84192945  0.69996721     0.17700
C2136       C  0.24772546  0.84567693  0.64088594     0.25700
C2137       C  0.25483955  0.86617403  0.61985706    -0.12000
C2138       C  0.26953626  0.86141230  0.61415427    -0.26000
C2139       C  0.27709888  0.83604280  0.63072567     0.36600
C2140       C  0.27000177  0.81584419  0.65224984    -0.27600
F2141       F  0.23335104  0.84973235  0.64404269    -0.19700
H2142       H  0.24863280  0.88483323  0.60702136     0.15900
F2143       F  0.29132484  0.83085765  0.62624144    -0.23500
H2144       H  0.27607901  0.79675214  0.66488239     0.17800
C2145       C  0.02092137  0.39676210  0.84114694    -0.27500
C2146       C  0.03336854  0.38222743  0.85353029     0.06100
C2147       C  0.04613534  0.40205808  0.85257264     0.25700
C2148       C  0.04644052  0.43521702  0.83880694    -0.12000
C2149       C  0.03400799  0.44956385  0.82609989    -0.25900
C2150       C  0.02114752  0.43006621  0.82783046     0.36500
C2151       C  0.03296848  0.34632737  0.86700098     0.06100
F2152       F  0.05830698  0.38958721  0.86518458    -0.19700
H2153       H  0.05645855  0.44959168  0.83795027     0.15900
F2154       F  0.00884733  0.44233750  0.81559349    -0.23400
H2155       H  0.01101694  0.38190678  0.84109667     0.17700
C2156       C  0.02178691  0.33642042  0.88611667     0.25700
C2157       C  0.02179652  0.30300156  0.89933170    -0.12000
C2158       C  0.03307246  0.27913226  0.89431816    -0.26000
C2159       C  0.04403257  0.28852626  0.87462836     0.36600
C2160       C  0.04385943  0.32163551  0.86086124    -0.27600
F2161       F  0.01124942  0.35965506  0.89333213    -0.19700
H2162       H  0.01338820  0.29656252  0.91483397     0.15900
F2163       F  0.05497992  0.26583558  0.86892043    -0.23500
H2164       H  0.05235615  0.32812798  0.84559798     0.17800
C2165       C  0.05822734  0.63117474  0.64556269    -0.27500
C2166       C  0.06482429  0.60714438  0.62630320     0.06100
C2167       C  0.06960698  0.57438157  0.63750280     0.25700
C2168       C  0.06699855  0.56525656  0.66689012    -0.12000
C2169       C  0.05994064  0.58895883  0.68579351    -0.25900
C2170       C  0.05586047  0.62238276  0.67492291     0.36500
C2171       C  0.06553035  0.61600961  0.59444858     0.06100
F2172       F  0.07677588  0.55120532  0.62010898    -0.19700
H2173       H  0.07041033  0.53956758  0.67483529     0.15900
F2174       F  0.04874266  0.64585137  0.69215333    -0.23400
H2175       H  0.05430950  0.65640101  0.63756020     0.17700
C2176       C  0.06037930  0.59227453  0.57315417     0.25700
C2177       C  0.05867687  0.60325306  0.54401113    -0.12000
C2178       C  0.06174679  0.63823812  0.53557988    -0.26000
C2179       C  0.06760958  0.66139095  0.55646167     0.36600
C2180       C  0.06955563  0.65024469  0.58549363    -0.27600
F2181       F  0.05581917  0.55945850  0.58086367    -0.19700
H2182       H  0.05402501  0.58498165  0.52843064     0.15900
F2183       F  0.07112335  0.69507533  0.54901501    -0.23500
H2184       H  0.07368639  0.66892552  0.60134980     0.17800
C2185       C  0.13869393  0.61030734  0.82295293    -0.27500
C2186       C  0.12743929  0.62984278  0.81060327     0.06100
C2187       C  0.13050441  0.66280526  0.79760743     0.25700
C2188       C  0.14473899  0.67441386  0.79485663    -0.12000
C2189       C  0.15617925  0.65364052  0.80538854    -0.25900
C2190       C  0.15286316  0.62211029  0.82078122     0.36500
C2191       C  0.11280963  0.61429641  0.80915914     0.06100
F2192       F  0.11983137  0.68266340  0.78581152    -0.19700
H2193       H  0.14682848  0.69883940  0.78315248     0.15900
F2194       F  0.16332489  0.60153320  0.83256080    -0.23400
H2195       H  0.13653087  0.58518450  0.83355685     0.17700
C2196       C  0.11042820  0.58264553  0.79372396     0.25700
C2197       C  0.09651328  0.56929945  0.79037497    -0.12000
C2198       C  0.08461967  0.58711430  0.80239572    -0.26000
C2199       C  0.08717352  0.61801488  0.81909780     0.36600
C2200       C  0.10109492  0.63145826  0.82218114    -0.27600
F2201       F  0.12150369  0.56565607  0.78046448    -0.19700
H2202       H  0.09501302  0.54580544  0.77717577     0.15900
F2203       F  0.07620180  0.63605053  0.83174675    -0.23500
H2204       H  0.10271728  0.65565200  0.83442769     0.17800
C2205       C  0.00567776  0.41501824  0.69705924    -0.27500
C2206       C  0.99829365  0.42951503  0.67286870     0.25300
C2207       C  0.99878976  0.46655350  0.66873505     0.25700
C2208       C  0.00606417  0.48826616  0.68861738    -0.12000
C2209       C  0.01348053  0.47369126  0.71248734    -0.25900
C2210       C  0.01334871  0.43676169  0.71643131     0.36500
C2211       C  0.99022614  0.40631385  0.65190122     0.06100
F2212       F  0.99256364  0.48187987  0.64501110    -0.19700
H2213       H  0.00610103  0.51663407  0.68508684     0.15900
F2214       F  0.02013832  0.42184828  0.73970520    -0.23400
H2215       H  0.00533331  0.38685335  0.70133024     0.17700
C2216       C  0.99600147  0.37402647  0.64178832     0.25700
C2217       C  0.98885094  0.35425409  0.62033336    -0.12000
C2218       C  0.97589899  0.36626373  0.60796086    -0.26000
C2219       C  0.96982683  0.39771441  0.61888951     0.36600
C2220       C  0.97681406  0.41710070  0.64081969    -0.27600
F2221       F  0.00897318  0.36244845  0.65124904    -0.19700
H2222       H  0.99390751  0.33033670  0.61225994     0.15900
F2223       F  0.95722677  0.41008873  0.60812511    -0.23500
H2224       H  0.97178075  0.44107733  0.64881445     0.17800
C2225       C  0.96555082  0.57323820  0.11475690    -0.27500
C2226       C  0.95401132  0.59673253  0.11861150     0.06100
C2227       C  0.94241693  0.58625284  0.13635916     0.25700
C2228       C  0.94259250  0.55347794  0.15051097    -0.12000
C2229       C  0.95436866  0.53050421  0.14762717    -0.25900
C2230       C  0.96579294  0.54049067  0.12914089     0.36500
C2231       C  0.95402690  0.63195557  0.10405027     0.06100
F2232       F  0.93115085  0.60829901  0.14109562    -0.19700
H2233       H  0.93367431  0.54669855  0.16466391     0.15900
F2234       F  0.97723038  0.51879421  0.12500485    -0.23400
H2235       H  0.97442442  0.58027277  0.10057193     0.17700
C2236       C  0.96613077  0.65411535  0.10491815     0.25700
C2237       C  0.96592402  0.68709734  0.09082561    -0.12000
C2238       C  0.95362455  0.69882309  0.07584288    -0.26000
C2239       C  0.94144196  0.67676742  0.07554237     0.36600
C2240       C  0.94175088  0.64371859  0.08922717    -0.27600
F2241       F  0.97809022  0.64414978  0.11971797    -0.19700
H2242       H  0.97545237  0.70338190  0.09151582     0.15900
F2243       F  0.92930447  0.68641773  0.06122956    -0.23500
H2244       H  0.93237740  0.62695275  0.08777739     0.17800
C2245       C  0.97536005  0.92381687  0.13582522    -0.27500
C2246       C  0.98935373  0.91391618  0.14416135     0.06100
C2247       C  0.99517016  0.88265951  0.13215370     0.25700
C2248       C  0.98720036  0.86204009  0.11265488    -0.12000
C2249       C  0.97339620  0.87239745  0.10377691    -0.25900
C2250       C  0.96756107  0.90371776  0.11549503     0.36500
C2251       C  0.99782993  0.93602470  0.16518864     0.06100
F2252       F  0.00885235  0.87277107  0.13806796    -0.19700
H2253       H  0.99217587  0.83870994  0.10331396     0.15900
F2254       F  0.95433983  0.91497618  0.10729561    -0.23400
H2255       H  0.97041187  0.94724019  0.14501298     0.17700
C2256       C  0.99777363  0.97334437  0.16355080     0.25700
C2257       C  0.00554099  0.99351682  0.18381377    -0.12000
C2258       C  0.01390421  0.97710776  0.20555473    -0.26000
C2259       C  0.01425603  0.93997959  0.20688676     0.36600
C2260       C  0.00613900  0.91978517  0.18725177    -0.27600
F2261       F  0.99047750  0.99045640  0.14203137    -0.19700
H2262       H  0.00514621  0.02211740  0.18233491     0.15900
F2263       F  0.02191443  0.92321500  0.22806085    -0.23500
H2264       H  0.00616947  0.89128866  0.18972966     0.17800
C2265       C  0.98703715  0.95718245  0.97329974    -0.27500
C2266       C  0.99434251  0.97200219  0.99719254     0.06100
C2267       C  0.99687732  0.95098536  0.02221993     0.25700
C2268       C  0.99213764  0.91598103  0.02321521    -0.12000
C2269       C  0.98436784  0.90167738  0.99978189    -0.25900
C2270       C  0.98195534  0.92247139  0.97464100     0.36500
C2271       C  0.99963988  0.00892079  0.99535056     0.06100
F2272       F  0.00317024  0.96484979  0.04641497    -0.19700
H2273       H  0.99355157  0.90098918  0.04328107     0.15900
F2274       F  0.97420458  0.90964798  0.95185604    -0.23400
H2275       H  0.98510409  0.97267464  0.95369946     0.17700
C2276       C  0.01389913  0.01654535  0.00249817     0.25700
C2277       C  0.01930314  0.05038955  0.99815766    -0.12000
C2278       C  0.01087875  0.07736855  0.98541902    -0.26000
C2279       C  0.99637960  0.07027464  0.97946985     0.36600
C2280       C  0.99082682  0.03630354  0.98453728    -0.27600
F2281       F  0.02301279  0.99063773  0.01144385    -0.19700
H2282       H  0.03053201  0.05458850  0.00302165     0.15900
F2283       F  0.98776810  0.09544265  0.96756284    -0.23500
H2284       H  0.97973056  0.03104340  0.97913511     0.17800
C2285       C  0.99927558  0.70758988  0.93665488    -0.27500
C2286       C  0.99159080  0.68601999  0.91723063     0.06100
C2287       C  0.97654282  0.68479839  0.91994311     0.25700
C2288       C  0.96947102  0.70480530  0.94156877    -0.12000
C2289       C  0.97718879  0.72666177  0.96088307    -0.25900
C2290       C  0.99225467  0.72767606  0.95809987     0.36500
C2291       C  0.99944892  0.66473482  0.89466816     0.06100
F2292       F  0.96862309  0.66500521  0.90121635    -0.19700
H2293       H  0.95789335  0.70352187  0.94292152     0.15900
F2294       F  0.00033832  0.74762487  0.97640731    -0.23400
H2295       H  0.01086973  0.70856854  0.93549300     0.17700
C2296       C  0.01012743  0.68023218  0.87696898     0.25700
C2297       C  0.01775089  0.65987408  0.85649930    -0.12000
C2298       C  0.01492234  0.62353364  0.85287376    -0.26000
C2299       C  0.00419427  0.60806886  0.87064773     0.36600
C2300       C  0.99663667  0.62845486  0.89125006    -0.27600
F2301       F  0.01288236  0.71542592  0.87873784    -0.19700
H2302       H  0.02566212  0.67296069  0.84286937     0.15900
F2303       F  0.00067957  0.57342206  0.86773821    -0.23500
H2304       H  0.98857753  0.61571176  0.90474085     0.17800
C2305       C  0.79651096  0.14501320  0.14508146    -0.27500
C2306       C  0.78475428  0.13518181  0.12793904     0.06100
C2307       C  0.77334361  0.15925415  0.12426098     0.25700
C2308       C  0.77363790  0.19224823  0.13813701    -0.12000
C2309       C  0.78541972  0.20199110  0.15538186    -0.25900
C2310       C  0.79697202  0.17806665  0.15839899     0.36500
C2311       C  0.78451030  0.09975522  0.11417339     0.06100
F2312       F  0.76201218  0.15108090  0.10695916    -0.19700
H2313       H  0.76466083  0.21016895  0.13538584     0.15900
F2314       F  0.80853434  0.18582540  0.17522016    -0.23400
H2315       H  0.80529353  0.12673298  0.14869400     0.17700
C2316       C  0.79654555  0.08680307  0.09897461     0.25700
C2317       C  0.79600793  0.05400293  0.08512495    -0.12000
C2318       C  0.78345820  0.03350728  0.08586820    -0.26000
C2319       C  0.77163569  0.04577579  0.10224628     0.36600
C2320       C  0.77222521  0.07855141  0.11628290    -0.27600
F2321       F  0.80862711  0.10650146  0.09630328    -0.19700
H2322       H  0.80530298  0.04535853  0.07278947     0.15900
F2323       F  0.75940608  0.02656310  0.10433959    -0.23500
H2324       H  0.76299692  0.08752849  0.12867955     0.17800
C2325       C  0.75509228  0.05116917  0.93217215    -0.27500
C2326       C  0.74010269  0.05334619  0.93407347     0.06100
C2327       C  0.73298172  0.03360463  0.95579016     0.25700
C2328       C  0.74077983  0.01227101  0.97528783    -0.12000
C2329       C  0.75582705  0.01015020  0.97351160    -0.25900
C2330       C  0.76289780  0.02981005  0.95154286     0.36500
C2331       C  0.73206515  0.07520263  0.91250691     0.06100
F2332       F  0.71851504  0.03547009  0.95848050    -0.19700
H2333       H  0.73502667  0.99764500  0.99200338     0.15900
F2334       F  0.77732675  0.02774261  0.94818958    -0.23400
H2335       H  0.76076291  0.06561612  0.91521457     0.17700
C2336       C  0.73545772  0.11106210  0.90819998     0.25700
C2337       C  0.72908526  0.13033054  0.88541227    -0.12000
C2338       C  0.71925172  0.11423791  0.86625710    -0.26000
C2339       C  0.71529663  0.07872434  0.87168994     0.36600
C2340       C  0.72165446  0.05957342  0.89458639    -0.27600
F2341       F  0.74516190  0.12728518  0.92572886    -0.19700
H2342       H  0.73231294  0.15756162  0.88210450     0.15900
F2343       F  0.70579596  0.06179948  0.85414553    -0.23500
H2344       H  0.71890227  0.03195634  0.89750694     0.17800
C2345       C  0.85749232  0.90915970  0.03766180    -0.27500
C2346       C  0.86067441  0.87706350  0.05196803     0.06100
C2347       C  0.84955543  0.85907833  0.06645931     0.25700
C2348       C  0.83547949  0.87183982  0.06518357    -0.12000
C2349       C  0.83209099  0.90293530  0.04951897    -0.25900
C2350       C  0.84339639  0.92204477  0.03639522     0.36500
C2351       C  0.87554114  0.86248313  0.05139443     0.06100
F2352       F  0.85227947  0.82903470  0.08184979    -0.19700
H2353       H  0.82713548  0.85658313  0.07579354     0.15900
F2354       F  0.84083437  0.95238129  0.02126472    -0.23400
H2355       H  0.86588409  0.92371822  0.02654992     0.17700
C2356       C  0.87833118  0.82725714  0.04290497     0.25700
C2357       C  0.89245357  0.81454689  0.04118033    -0.12000
C2358       C  0.90412214  0.83661654  0.04776730    -0.26000
C2359       C  0.90123456  0.87182448  0.05655513     0.36600
C2360       C  0.88715060  0.88439012  0.05829178    -0.27600
F2361       F  0.86746222  0.80561538  0.03477211    -0.19700
H2362       H  0.89426504  0.78769182  0.03376738     0.15900
F2363       F  0.91200459  0.89494600  0.06208721    -0.23500
H2364       H  0.88531266  0.91161942  0.06472343     0.17800
C2365       C  0.72847715  0.79675932  0.17837384    -0.27500
C2366       C  0.74353432  0.79746120  0.17890778     0.06100
C2367       C  0.75073086  0.77713458  0.20014594     0.25700
C2368       C  0.74301878  0.75628473  0.22010398    -0.12000
C2369       C  0.72793003  0.75528991  0.21957261    -0.25900
C2370       C  0.72072769  0.77592445  0.19835571     0.36500
C2371       C  0.75159587  0.81955653  0.15736663     0.06100
F2372       F  0.76522986  0.77816706  0.20212955    -0.19700
H2373       H  0.74892425  0.74116770  0.23630079     0.15900
F2374       F  0.70621672  0.77564466  0.19650955    -0.23400
H2375       H  0.72269578  0.81211334  0.16214035     0.17700
C2376       C  0.76227094  0.80475018  0.13929466     0.25700
C2377       C  0.76920899  0.82549224  0.11805103    -0.12000
C2378       C  0.76571248  0.86150458  0.11429599    -0.26000
C2379       C  0.75527038  0.87645831  0.13307945     0.36600
C2380       C  0.74830007  0.85561222  0.15415983    -0.27600
F2381       F  0.76549276  0.76977000  0.14114821    -0.19700
H2382       H  0.77700618  0.81293464  0.10382232     0.15900
F2383       F  0.75127680  0.91087826  0.13039192    -0.23500
H2384       H  0.74014596  0.86762649  0.16788183     0.17800
C2385       C  0.73082687  0.70767353  0.02250559    -0.27500
C2386       C  0.74169630  0.72325655  0.00560966     0.06100
C2387       C  0.75006902  0.70137515  0.98721571     0.25700
C2388       C  0.74611186  0.66613898  0.98248116    -0.12000
C2389       C  0.73412251  0.65202139  0.99685784    -0.25900
C2390       C  0.72730824  0.67224143  0.01877698     0.36500
C2391       C  0.74384349  0.76219819  0.00689738     0.06100
F2392       F  0.76177360  0.71421382  0.97310047    -0.19700
H2393       H  0.75173908  0.65089195  0.96597939     0.15900
F2394       F  0.71628681  0.65873501  0.03472535    -0.23400
H2395       H  0.72440215  0.72331425  0.03743693     0.17700
C2396       C  0.74691212  0.78205599  0.98142359     0.25700
C2397       C  0.75040256  0.81784933  0.98363297    -0.12000
C2398       C  0.75011097  0.83482194  0.01090962    -0.26000
C2399       C  0.74529057  0.81624035  0.03569630     0.36600
C2400       C  0.74250114  0.78009263  0.03379631    -0.27600
F2401       F  0.74678561  0.76692240  0.95446110    -0.19700
H2402       H  0.75404891  0.83191860  0.96429171     0.15900
F2403       F  0.74485142  0.83201275  0.06240785    -0.23500
H2404       H  0.73998325  0.76585722  0.05376924     0.17800
C2405       C  0.94703760  0.08885614  0.63800176    -0.27500
C2406       C  0.95906310  0.09791467  0.62121481     0.06100
C2407       C  0.97077054  0.07451820  0.61992053     0.25700
C2408       C  0.97034321  0.04243430  0.63517220    -0.12000
C2409       C  0.95823957  0.03318219  0.65187278    -0.25900
C2410       C  0.94654875  0.05687414  0.65312796     0.36500
C2411       C  0.95917137  0.13179217  0.60512204     0.06100
F2412       F  0.98249450  0.08238727  0.60352700    -0.19700
H2413       H  0.97950138  0.02484292  0.63390086     0.15900
F2414       F  0.93476112  0.04983088  0.66960638    -0.23400
H2415       H  0.93803371  0.10688303  0.63971262     0.17700
C2416       C  0.94754143  0.14125142  0.58722789     0.25700
C2417       C  0.94749735  0.17360260  0.57259581    -0.12000
C2418       C  0.95910111  0.19698958  0.57521381    -0.26000
C2419       C  0.97076651  0.18750448  0.59315331     0.36600
C2420       C  0.97072520  0.15519510  0.60807674    -0.27600
F2421       F  0.93638801  0.11876940  0.58323764    -0.19700
H2422       H  0.93849001  0.17990904  0.55855284     0.15900
F2423       F  0.98214181  0.20944022  0.59649426    -0.23500
H2424       H  0.97967533  0.14854614  0.62215978     0.17800
C2425       C  0.98154924  0.03869083  0.81089357    -0.27500
C2426       C  0.99646924  0.04296223  0.80800369     0.06100
C2427       C  0.00348752  0.02667450  0.78430791     0.25700
C2428       C  0.99573546  0.00666889  0.76402097    -0.12000
C2429       C  0.98078944  0.00263884  0.76667230    -0.25900
C2430       C  0.97375393  0.01887501  0.79042505     0.36500
C2431       C  0.00457343  0.06485590  0.82943781     0.06100
F2432       F  0.01778537  0.03100786  0.78021214    -0.19700
H2433       H  0.00143914  0.99478378  0.74583703     0.15900
F2434       F  0.95942676  0.01493107  0.79429993    -0.23400
H2435       H  0.97593034  0.05055702  0.82919102     0.17700
C2436       C  0.99994051  0.09922051  0.83637690     0.25700
C2437       C  0.00730346  0.11939454  0.85709386    -0.12000
C2438       C  0.01942195  0.10582074  0.87175369    -0.26000
C2439       C  0.02427706  0.07162788  0.86427115     0.36600
C2440       C  0.01693466  0.05151000  0.84325594    -0.27600
F2441       F  0.98827005  0.11343835  0.82304687    -0.19700
H2442       H  0.00318597  0.14544417  0.86223916     0.15900
F2443       F  0.03591492  0.05725073  0.87758157    -0.23500
H2444       H  0.02069900  0.02507784  0.83831789     0.17800
C2445       C  0.92367931  0.82448496  0.88593106    -0.27500
C2446       C  0.92704664  0.85896776  0.87675284     0.06100
C2447       C  0.93106987  0.88423705  0.89779805     0.25700
C2448       C  0.93237128  0.87456037  0.92719065    -0.12000
C2449       C  0.92994645  0.83948654  0.93604666    -0.25900
C2450       C  0.92522622  0.81463370  0.91526286     0.36500
C2451       C  0.92759887  0.86762291  0.84512818     0.06100
F2452       F  0.93475598  0.91761005  0.88974077    -0.19700
H2453       H  0.93613948  0.89408501  0.94272702     0.15900
F2454       F  0.92245197  0.78063725  0.92308882    -0.23400
H2455       H  0.92028413  0.80482764  0.87016439     0.17700
C2456       C  0.93515505  0.84558449  0.82558855     0.25700
C2457       C  0.93694575  0.85565865  0.79638651    -0.12000
C2458       C  0.93162127  0.88822363  0.78643288    -0.26000
C2459       C  0.92371024  0.90980894  0.80560651     0.36600
C2460       C  0.92155742  0.89928603  0.83464594    -0.27600
F2461       F  0.94168869  0.81556662  0.83513653    -0.19700
H2462       H  0.94329053  0.83905594  0.78201826     0.15900
F2463       F  0.91830156  0.94130213  0.79639520    -0.23500
H2464       H  0.91552857  0.91635847  0.84918772     0.17800
C2465       C  0.00711356  0.81383074  0.53267311    -0.27500
C2466       C  0.99795037  0.79903876  0.55397574     0.06100
C2467       C  0.99652104  0.76187572  0.55499284     0.25700
C2468       C  0.00386920  0.74041932  0.53494984    -0.12000
C2469       C  0.01315004  0.75527405  0.51407082    -0.25900
C2470       C  0.01479823  0.79224399  0.51322959     0.36500
C2471       C  0.99015624  0.82223301  0.57529180     0.06100
F2472       F  0.98834538  0.74608086  0.57587014    -0.19700
H2473       H  0.00249438  0.71195983  0.53606987     0.15900
F2474       F  0.02341126  0.80760836  0.49286155    -0.23400
H2475       H  0.00822258  0.84226989  0.53077866     0.17700
C2476       C  0.99708778  0.85090807  0.58893994     0.25700
C2477       C  0.98994751  0.87120466  0.61004216    -0.12000
C2478       C  0.97587360  0.86302318  0.61868870    -0.26000
C2479       C  0.96879666  0.83493198  0.60467776     0.36600
C2480       C  0.97580105  0.81521129  0.58291200    -0.27600
F2481       F  0.01105025  0.85819634  0.58324034    -0.19700
H2482       H  0.99576699  0.89224854  0.62082234     0.15900
F2483       F  0.95516780  0.82627664  0.61218447    -0.23500
H2484       H  0.97001180  0.79403842  0.57227125     0.17800
C2485       C  0.00319855  0.78520950  0.72745054    -0.27500
C2486       C  0.99489353  0.76235835  0.74509391     0.06100
C2487       C  0.98326003  0.77663165  0.76083252     0.25700
C2488       C  0.97939888  0.81178389  0.75694964    -0.12000
C2489       C  0.98624762  0.83278678  0.73572010    -0.25900
C2490       C  0.99873958  0.82003740  0.72220380     0.36500
C2491       C  0.99784176  0.72368054  0.74577201     0.06100
F2492       F  0.97456907  0.75607784  0.77756851    -0.19700
H2493       H  0.96987867  0.82127824  0.76806921     0.15900
F2494       F  0.00574231  0.83967719  0.70177648    -0.23400
H2495       H  0.01266758  0.77558060  0.71630941     0.17700
C2496       C  0.00223467  0.70539548  0.72030860     0.25700
C2497       C  0.00597186  0.66965237  0.72192427    -0.12000
C2498       C  0.00461630  0.65111803  0.74840907    -0.26000
C2499       C  0.99887010  0.66830486  0.77300044     0.36600
C2500       C  0.99605061  0.70445376  0.77196249    -0.27600
F2501       F  0.00319544  0.72200511  0.69396057    -0.19700
H2502       H  0.01050687  0.65678542  0.70284020     0.15900
F2503       F  0.99743065  0.65107892  0.79897770    -0.23500
H2504       H  0.99306927  0.71748932  0.79214104     0.17800
C2505       C  0.79718206  0.64432212  0.63901129    -0.27500
C2506       C  0.78492820  0.63410387  0.62338361     0.06100
C2507       C  0.77310312  0.65730634  0.62268952     0.25700
C2508       C  0.77364797  0.68998984  0.63726052    -0.12000
C2509       C  0.78598542  0.70033892  0.65276914    -0.25900
C2510       C  0.79778849  0.67690755  0.65339781     0.36500
C2511       C  0.78481935  0.59948386  0.60769364     0.06100
F2512       F  0.76112337  0.64874848  0.60747214    -0.19700
H2513       H  0.76435737  0.70717788  0.63644723     0.15900
F2514       F  0.80985546  0.68481547  0.66858333    -0.23400
H2515       H  0.80633083  0.62671123  0.64042059     0.17700
C2516       C  0.79648522  0.58957862  0.58993231     0.25700
C2517       C  0.79673007  0.55663547  0.57610848    -0.12000
C2518       C  0.78528402  0.53270924  0.57915452    -0.26000
C2519       C  0.77348924  0.54272359  0.59666898     0.36600
C2520       C  0.77333382  0.57569923  0.61088123    -0.27600
F2521       F  0.80753169  0.61221396  0.58521377    -0.19700
H2522       H  0.80583451  0.55026592  0.56231703     0.15900
F2523       F  0.76216742  0.52066404  0.60030170    -0.23500
H2524       H  0.76428772  0.58248599  0.62469246     0.17800
C2525       C  0.76148050  0.93342445  0.60204587    -0.27500
C2526       C  0.75502414  0.91581875  0.57846894     0.06100
C2527       C  0.75586740  0.87865173  0.57730247     0.25700
C2528       C  0.76266867  0.85955110  0.59977290    -0.12000
C2529       C  0.76885036  0.87705773  0.62382975    -0.25900
C2530       C  0.76823834  0.91443984  0.62455795     0.36500
C2531       C  0.74715053  0.93645214  0.55571562     0.06100
F2532       F  0.75016087  0.86081351  0.55433433    -0.19700
H2533       H  0.76294795  0.83092649  0.59849464     0.15900
F2534       F  0.77353417  0.93277326  0.64769116    -0.23400
H2535       H  0.76088568  0.96201050  0.60350259     0.17700
C2536       C  0.73265552  0.92954831  0.54963284     0.25700
C2537       C  0.72520512  0.94991599  0.52890108    -0.12000
C2538       C  0.73200244  0.97764736  0.51365168    -0.26000
C2539       C  0.74659640  0.98440126  0.51977734     0.36600
C2540       C  0.75398137  0.96414672  0.54068350    -0.27600
F2541       F  0.72555031  0.90379091  0.56444169    -0.19700
H2542       H  0.71401963  0.94401420  0.52493898     0.15900
F2543       F  0.75380095  0.01067291  0.50579060    -0.23500
H2544       H  0.76513254  0.97001042  0.54508312     0.17800
C2545       C  0.73922206  0.94721171  0.72681612    -0.27500
C2546       C  0.74557966  0.96890487  0.74820451     0.06100
C2547       C  0.75665849  0.95486970  0.76559915     0.25700
C2548       C  0.76180167  0.92090086  0.76040510    -0.12000
C2549       C  0.75641685  0.90050920  0.73718915    -0.25900
C2550       C  0.74466459  0.91335180  0.72109671     0.36500
C2551       C  0.74106966  0.00635131  0.75176277     0.06100
F2552       F  0.76338153  0.97487342  0.78606460    -0.19700
H2553       H  0.77084623  0.91161934  0.77318079     0.15900
F2554       F  0.73925089  0.89465673  0.69828995    -0.23400
H2555       H  0.73038493  0.95698297  0.71373495     0.17700
C2556       C  0.73867999  0.02847458  0.72726681     0.25700
C2557       C  0.73414412  0.06346652  0.73123945    -0.12000
C2558       C  0.73259074  0.07726163  0.75955746    -0.26000
C2559       C  0.73549276  0.05573336  0.78391362     0.36600
C2560       C  0.73941203  0.02049112  0.78003024    -0.27600
F2561       F  0.74073511  0.01640602  0.69955701    -0.19700
H2562       H  0.73160229  0.07961552  0.71229434     0.15900
F2563       F  0.73345377  0.06803316  0.81155105    -0.23500
H2564       H  0.74078468  0.00399900  0.79926676     0.17800
C2565       C  0.80744536  0.83208633  0.84545794    -0.27500
C2566       C  0.81223377  0.86652664  0.85119108     0.06100
C2567       C  0.81692112  0.88773204  0.82766489     0.25700
C2568       C  0.81585978  0.87534440  0.79881285    -0.12000
C2569       C  0.81029607  0.84148391  0.79299044    -0.25900
C2570       C  0.80651537  0.81955028  0.81682873     0.36500
C2571       C  0.81109643  0.88033589  0.88152523     0.06100
F2572       F  0.82232727  0.92052035  0.83251957    -0.19700
H2573       H  0.81904075  0.89263942  0.78099124     0.15900
F2574       F  0.80107946  0.78665562  0.81261948    -0.23400
H2575       H  0.80372669  0.81528572  0.86317685     0.17700
C2576       C  0.80377614  0.91215922  0.88732913     0.25700
C2577       C  0.80066052  0.92187806  0.91618935    -0.12000
C2578       C  0.80455581  0.89987729  0.93980203    -0.26000
C2579       C  0.81238636  0.86876545  0.93402844     0.36600
C2580       C  0.81564145  0.85927466  0.90518511    -0.27600
F2581       F  0.79870822  0.93262585  0.86513382    -0.19700
H2582       H  0.79460108  0.94594850  0.91992961     0.15900
F2583       F  0.81670985  0.84714440  0.95613090    -0.23500
H2584       H  0.82135005  0.83473127  0.90122768     0.17800
C2585       C  0.86226531  0.82865728  0.68281681    -0.27500
C2586       C  0.86447745  0.86112109  0.66843792     0.06100
C2587       C  0.85269160  0.87883122  0.65622725     0.25700
C2588       C  0.83886282  0.86520749  0.65972109    -0.12000
C2589       C  0.83642456  0.83383568  0.67584382    -0.25900
C2590       C  0.84840117  0.81515499  0.68669202     0.36500
C2591       C  0.87898552  0.87711045  0.66778134     0.06100
F2592       F  0.85452892  0.90975336  0.64148940    -0.19700
H2593       H  0.82997752  0.88027331  0.65087958     0.15900
F2594       F  0.84673909  0.78490285  0.70241250    -0.23400
H2595       H  0.87125883  0.81455357  0.69228051     0.17700
C2596       C  0.88170587  0.90952957  0.68182387     0.25700
C2597       C  0.89575324  0.92225686  0.68425498    -0.12000
C2598       C  0.90736246  0.90301910  0.67262358    -0.26000
C2599       C  0.90441752  0.87152894  0.65699141     0.36600
C2600       C  0.89040617  0.85871846  0.65492418    -0.27600
F2601       F  0.87089240  0.92772563  0.69487570    -0.19700
H2602       H  0.89759081  0.94632536  0.69653835     0.15900
F2603       F  0.91510675  0.85185581  0.64500522    -0.23500
H2604       H  0.88849773  0.83380223  0.64388440     0.17800
C2605       C  0.76332836  0.68450309  0.80757206    -0.27500
C2606       C  0.74869056  0.69050490  0.81307818     0.06100
C2607       C  0.74156599  0.71660692  0.79656642     0.25700
C2608       C  0.74888767  0.73595572  0.77496319    -0.12000
C2609       C  0.76355101  0.73001680  0.76924920    -0.25900
C2610       C  0.77071495  0.70401600  0.78607172     0.36500
C2611       C  0.74092468  0.66963340  0.83602648     0.06100
F2612       F  0.72738629  0.72282776  0.80079477    -0.19700
H2613       H  0.74297940  0.75557593  0.76256955     0.15900
F2614       F  0.78487482  0.69740910  0.78197898    -0.23400
H2615       H  0.76910576  0.66486542  0.82020449     0.17700
C2616       C  0.74117276  0.63239510  0.83593326     0.25700
C2617       C  0.73396782  0.61307027  0.85774975    -0.12000
C2618       C  0.72634731  0.63029188  0.88032286    -0.26000
C2619       C  0.72609558  0.66767257  0.88031616     0.36600
C2620       C  0.73323750  0.68694770  0.85835530    -0.27600
F2621       F  0.74824945  0.61460945  0.81449418    -0.19700
H2622       H  0.73448233  0.58447016  0.85708779     0.15900
F2623       F  0.71945330  0.68579830  0.90213762    -0.23500
H2624       H  0.73303965  0.71556170  0.85917756     0.17800
loop_ 
_geom_bond_atom_site_label_1 
_geom_bond_atom_site_label_2 
_geom_bond_distance 
_geom_bond_site_symmetry_2 
_ccdc_geom_bond_type 
Fe1          O17   2.044       .  S
Fe1           O7   2.103       .  S
Fe1          O14   2.119       .  S
Fe1           O6   2.055       .  S
Fe1          O12   1.942       .  S
Fe2           O5   2.023       .  S
Fe2           O9   2.088       .  S
Fe2          O13   2.040       .  S
Fe2          O18   2.090       .  S
Fe2          O12   1.940       .  S
Fe3          O21   2.105       .  S
Fe3           O8   2.072       .  S
Fe3          O15   2.067       .  S
Fe3           O4   2.104       .  S
Fe3          O12   1.949       .  S
O4           C11   1.279       .  A
O5           C19   1.263       .  A
O6           C11   1.272       .  A
O7           C10   1.277       .  A
O8           C20   1.273       .  A
O9           C22   1.271       .  A
C10          O15   1.272       .  A
C10        C2609   1.501       .  S
C11        C2509   1.493       .  S
O13          C16   1.267       .  A
O14          C16   1.281       .  A
C16        C2589   1.494       .  S
O17          C22   1.265       .  A
O18          C20   1.274       .  A
C19          O21   1.276       .  A
C19        C2549   1.474       .  S
C20        C2529   1.494       .  S
C22        C2569   1.484       .  S
Fe23         O39   2.036       .  S
Fe23         O29   2.105       .  S
Fe23         O36   2.116       .  S
Fe23         O28   2.037       .  S
Fe23         O34   1.947       .  S
Fe24         O27   2.012       .  S
Fe24         O31   2.086       .  S
Fe24         O35   2.037       .  S
Fe24         O40   2.089       .  S
Fe24         O34   1.934       .  S
Fe25         O43   2.101       .  S
Fe25         O30   2.054       .  S
Fe25         O37   2.046       .  S
Fe25         O26   2.091       .  S
Fe25         O34   1.951       .  S
O26          C33   1.278   1_565  A
O27          C41   1.263       .  A
O28          C33   1.269   1_565  A
O29          C32   1.276       .  A
O30          C42   1.268       .  A
O31          C44   1.273       .  A
C32          O37   1.266       .  A
C32        C2429   1.488   1_565  S
C33        C2409   1.477       .  S
O35          C38   1.264       .  A
O36          C38   1.279       .  A
C38        C2598   1.492       .  S
O39          C44   1.265       .  A
O40          C42   1.273       .  A
C41          O43   1.276       .  A
C41        C2489   1.470       .  S
C42        C2478   1.485       .  S
C44        C2458   1.466       .  S
Fe45         O61   2.045   1_554  S
Fe45         O51   2.095   1_554  S
Fe45         O58   2.106       .  S
Fe45         O50   2.046       .  S
Fe45         O56   1.937       .  S
Fe46         O49   2.037       .  S
Fe46         O53   2.090   1_554  S
Fe46         O57   2.051       .  S
Fe46         O62   2.107       .  S
Fe46         O56   1.932       .  S
Fe47         O65   2.092       .  S
Fe47         O52   2.057       .  S
Fe47         O59   2.062       .  S
Fe47         O48   2.084       .  S
Fe47         O56   1.948       .  S
O48          C55   1.275   1_565  A
O49          C63   1.263       .  A
O50          C55   1.270   1_565  A
O51          C54   1.276       .  A
O52          C64   1.270       .  A
O53          C66   1.274       .  A
C54          O59   1.271   1_556  A
C54        C2329   1.489   1_565  S
C55        C2318   1.480       .  S
O57          C60   1.270       .  A
O58          C60   1.278       .  A
C60        C2349   1.493       .  S
O61          C66   1.266       .  A
O62          C64   1.278       .  A
C63          O65   1.273       .  A
C63        C2398   1.463       .  S
C64        C2378   1.496       .  S
C66        C2578   1.481       .  S
Fe67         O83   2.038   1_554  S
Fe67         O73   2.110   1_554  S
Fe67         O80   2.119       .  S
Fe67         O72   2.048       .  S
Fe67         O78   1.941       .  S
Fe68         O71   2.031   1_554  S
Fe68         O75   2.083   1_554  S
Fe68         O79   2.040       .  S
Fe68         O84   2.102       .  S
Fe68         O78   1.933       .  S
Fe69         O87   2.103       .  S
Fe69         O74   2.057       .  S
Fe69         O81   2.059   1_554  S
Fe69         O70   2.101       .  S
Fe69         O78   1.943       .  S
O70          C77   1.278       .  A
O71          C85   1.261   1_556  A
O72          C77   1.270       .  A
O73          C76   1.279       .  A
O74          C86   1.272       .  A
O75          C88   1.273       .  A
C76          O81   1.271       .  A
C76        C2289   1.497       .  S
C77        C2238   1.487       .  S
O79          C82   1.267       .  A
O80          C82   1.281       .  A
C82        C2358   1.493       .  S
O83          C88   1.265       .  A
O84          C86   1.277       .  A
C85          O87   1.275       .  A
C85        C2269   1.469   1_554  S
C86        C2249   1.488       .  S
C88        C2449   1.473       .  S
Fe89        O105   2.119       .  S
Fe89         O95   2.066       .  S
Fe89        O102   2.064       .  S
Fe89         O94   2.111       .  S
Fe89        O100   1.944       .  S
Fe90         O93   2.108       .  S
Fe90         O97   2.050       .  S
Fe90        O101   2.082       .  S
Fe90        O106   2.037       .  S
Fe90        O100   1.932       .  S
Fe91        O109   2.064       .  S
Fe91         O96   2.086       .  S
Fe91        O103   2.081       .  S
Fe91         O92   2.063       .  S
Fe91        O100   1.946       .  S
O92          C99   1.271       .  A
O93         C107   1.280       .  A
O94          C99   1.278       .  A
O95          C98   1.274       .  A
O96         C108   1.270       .  A
O97         C110   1.269       .  A
C98         O103   1.274       .  A
C98        C2149   1.486       .  S
C99        C2209   1.483       .  S
O101        C104   1.273       .  A
O102        C104   1.270       .  A
C104       C2169   1.483       .  S
O105        C110   1.282       .  A
O106        C108   1.260       .  A
C107        O109   1.273       .  A
C107       C2298   1.499       .  S
C108       C2498   1.461       .  S
C110       C2198   1.498       .  S
Fe111       O127   2.121       .  S
Fe111       O117   2.049       .  S
Fe111       O124   2.049       .  S
Fe111       O116   2.111       .  S
Fe111       O122   1.933       .  S
Fe112       O115   2.113       .  S
Fe112       O119   2.044       .  S
Fe112       O123   2.095       .  S
Fe112       O128   2.034       .  S
Fe112       O122   1.929       .  S
Fe113       O131   2.054       .  S
Fe113       O118   2.101       .  S
Fe113       O125   2.098       .  S
Fe113       O114   2.062       .  S
Fe113       O122   1.943       .  S
O114        C121   1.271       .  A
O115        C129   1.281       .  A
O116        C121   1.280       .  A
O117        C120   1.269       .  A
O118        C130   1.272       .  A
O119        C132   1.268       .  A
C120        O125   1.277       .  A
C120       C2058   1.487       .  S
C121       C2129   1.486       .  S
O123        C126   1.274       .  A
O124        C126   1.267       .  A
C126       C2069   1.486       .  S
O127        C132   1.282       .  A
O128        C130   1.259       .  A
C129        O131   1.271       .  A
C129       C2109   1.495       .  S
C130       C2098   1.461       .  S
C132       C2189   1.497       .  S
Fe133       O149   2.106       .  S
Fe133       O139   2.052       .  S
Fe133       O146   2.060       .  S
Fe133       O138   2.094       .  S
Fe133       O144   1.946       .  S
Fe134       O137   2.091       .  S
Fe134       O141   2.035       .  S
Fe134       O145   2.094       .  S
Fe134       O150   2.008       .  S
Fe134       O144   1.935       .  S
Fe135       O153   2.074       .  S
Fe135       O140   2.115       .  S
Fe135       O147   2.118       .  S
Fe135       O136   2.062       .  S
Fe135       O144   1.949       .  S
O136        C143   1.268       .  A
O137        C151   1.274       .  A
O138        C143   1.273       .  A
O139        C142   1.274       .  A
O140        C152   1.279       .  A
O141        C154   1.263       .  A
C142        O147   1.284       .  A
C142       C1969   1.494       .  S
C143       C2469   1.481       .  S
O145        C148   1.274       .  A
O146        C148   1.270       .  A
C148       C2178   1.484       .  S
O149        C154   1.277       .  A
O150        C152   1.262       .  A
C151        O153   1.272       .  A
C151       C2018   1.500       .  S
C152       C2029   1.477       .  S
C154       C1989   1.486       .  S
Fe155       O171   2.106       .  S
Fe155       O161   2.045       .  S
Fe155       O168   2.050       .  S
Fe155       O160   2.093       .  S
Fe155       O166   1.942       .  S
Fe156       O159   2.095       .  S
Fe156       O163   2.043       .  S
Fe156       O167   2.088       .  S
Fe156       O172   2.035       .  S
Fe156       O166   1.939       .  S
Fe157       O175   2.076       .  S
Fe157       O162   2.077       .  S
Fe157       O169   2.073       .  S
Fe157       O158   2.071       .  S
Fe157       O166   1.952       .  S
O158        C165   1.273       .  A
O159        C173   1.275       .  A
O160        C165   1.276       .  A
O161        C164   1.269       .  A
O162        C174   1.271       .  A
O163        C176   1.268       .  A
C164        O169   1.272       .  A
C164       C1898   1.476       .  S
C165       C1909   1.496       .  S
O167        C170   1.271       .  A
O168        C170   1.266       .  A
C170       C2078   1.487       .  S
O171        C176   1.279       .  A
O172        C174   1.264       .  A
C173        O175   1.273       .  A
C173       C1929   1.495       .  S
C174       C1949   1.455       .  S
C176       C1998   1.489       .  S
Fe177       O193   2.112       .  S
Fe177       O183   2.052       .  S
Fe177       O190   2.040       .  S
Fe177       O182   2.108       .  S
Fe177       O188   1.935       .  S
Fe178       O181   2.092       .  S
Fe178       O185   2.037       .  S
Fe178       O189   2.092       .  S
Fe178       O194   2.036       .  S
Fe178       O188   1.932       .  S
Fe179       O197   2.065       .  S
Fe179       O184   2.098       .  S
Fe179       O191   2.098       .  S
Fe179       O180   2.070       .  S
Fe179       O188   1.935       .  S
O180        C187   1.272       .  A
O181        C195   1.275       .  A
O182        C187   1.278       .  A
O183        C186   1.271       .  A
O184        C196   1.274       .  A
O185        C198   1.263       .  A
C186        O191   1.278       .  A
C186       C1818   1.484       .  S
C187       C1869   1.491       .  S
O189        C192   1.273       .  A
O190        C192   1.268       .  A
C192       C1829   1.480       .  S
O193        C198   1.279       .  A
O194        C196   1.262       .  A
C195        O197   1.273       .  A
C195       C2338   1.492       .  S
C196       C2558   1.461       .  S
C198       C1849   1.481       .  S
Fe199       O215   2.102       .  S
Fe199       O205   2.050   1_545  S
Fe199       O212   2.045       .  S
Fe199       O204   2.097   1_545  S
Fe199       O210   1.935       .  S
Fe200       O203   2.115       .  S
Fe200       O207   2.046       .  S
Fe200       O211   2.104       .  S
Fe200       O216   2.032       .  S
Fe200       O210   1.930       .  S
Fe201       O219   2.059       .  S
Fe201       O206   2.088       .  S
Fe201       O213   2.095   1_545  S
Fe201       O202   2.062       .  S
Fe201       O210   1.936       .  S
O202        C209   1.269       .  A
O203        C217   1.281       .  A
O204        C209   1.275   1_565  A
O205        C208   1.271       .  A
O206        C218   1.272       .  A
O207        C220   1.266       .  A
C208        O213   1.278       .  A
C208       C1718   1.479       .  S
C209       C1789   1.481   1_545  S
O211        C214   1.277       .  A
O212        C214   1.268       .  A
C214       C1778   1.486       .  S
O215        C220   1.276       .  A
O216        C218   1.261       .  A
C217        O219   1.272       .  A
C217       C1749   1.499       .  S
C218       C1729   1.454       .  S
C220       C1858   1.482       .  S
Fe221       O237   2.124       .  S
Fe221       O227   2.047   1_545  S
Fe221       O234   2.046       .  S
Fe221       O226   2.108   1_545  S
Fe221       O232   1.935       .  S
Fe222       O225   2.091       .  S
Fe222       O229   2.037       .  S
Fe222       O233   2.083       .  S
Fe222       O238   2.033       .  S
Fe222       O232   1.927       .  S
Fe223       O241   2.057       .  S
Fe223       O228   2.101       .  S
Fe223       O235   2.091   1_545  S
Fe223       O224   2.057       .  S
Fe223       O232   1.945       .  S
O224        C231   1.270   1_545  A
O225        C239   1.276       .  A
O226        C231   1.280       .  A
O227        C230   1.269       .  A
O228        C240   1.274       .  A
O229        C242   1.267       .  A
C230        O235   1.276       .  A
C230       C1638   1.485       .  S
C231       C2538   1.496       .  S
O233        C236   1.271       .  A
O234        C236   1.266       .  A
C236       C1838   1.481       .  S
O237        C242   1.282       .  A
O238        C240   1.262       .  A
C239        O241   1.270       .  A
C239       C1669   1.488       .  S
C240       C1698   1.464       .  S
C242       C1658   1.493       .  S
Fe243       O259   2.121       .  S
Fe243       O249   2.059       .  S
Fe243       O256   2.046       .  S
Fe243       O248   2.113       .  S
Fe243       O254   1.940       .  S
Fe244       O247   2.113       .  S
Fe244       O251   2.037       .  S
Fe244       O255   2.099       .  S
Fe244       O260   2.034       .  S
Fe244       O254   1.931       .  S
Fe245       O263   2.063       .  S
Fe245       O250   2.086       .  S
Fe245       O257   2.082       .  S
Fe245       O246   2.056       .  S
Fe245       O254   1.942       .  S
O246        C253   1.271       .  A
O247        C261   1.280       .  A
O248        C253   1.280       .  A
O249        C252   1.271       .  A
O250        C262   1.271       .  A
O251        C264   1.266       .  A
C252        O257   1.274       .  A
C252       C1549   1.474       .  S
C253       C1578   1.496       .  S
O255        C258   1.276       .  A
O256        C258   1.267       .  A
C258       C1769   1.488       .  S
O259        C264   1.281       .  A
O260        C262   1.261       .  A
C261        O263   1.272       .  A
C261       C1589   1.500       .  S
C262       C1618   1.459       .  S
C264       C1649   1.494       .  S
Fe265       O281   2.113       .  S
Fe265       O271   2.049       .  S
Fe265       O278   2.048       .  S
Fe265       O270   2.100       .  S
Fe265       O276   1.946       .  S
Fe266       O269   2.101       .  S
Fe266       O273   2.044       .  S
Fe266       O277   2.090       .  S
Fe266       O282   2.040       .  S
Fe266       O276   1.938       .  S
Fe267       O285   2.072       .  S
Fe267       O272   2.097       .  S
Fe267       O279   2.089       .  S
Fe267       O268   2.065       .  S
Fe267       O276   1.953       .  S
O268        C275   1.273       .  A
O269        C283   1.276       .  A
O270        C275   1.278       .  A
O271        C274   1.268       .  A
O272        C284   1.274       .  A
O273        C286   1.270       .  A
C274        O279   1.275       .  A
C274       C1629   1.482       .  S
C275       C2369   1.495       .  S
O277        C280   1.272       .  A
O278        C280   1.265       .  A
C280       C1469   1.487       .  S
O281        C286   1.281       .  A
O282        C284   1.264       .  A
C283        O285   1.273       .  A
C283       C1518   1.500       .  S
C284       C1538   1.468       .  S
C286       C1489   1.492       .  S
Fe287       O303   2.109       .  S
Fe287       O293   2.040       .  S
Fe287       O300   2.037       .  S
Fe287       O292   2.097       .  S
Fe287       O298   1.939       .  S
Fe288       O291   2.103       .  S
Fe288       O295   2.041       .  S
Fe288       O299   2.104       .  S
Fe288       O304   2.009       .  S
Fe288       O298   1.931       .  S
Fe289       O307   2.057       .  S
Fe289       O294   2.109       .  S
Fe289       O301   2.106       .  S
Fe289       O290   2.046       .  S
Fe289       O298   1.943       .  S
O290        C297   1.265       .  A
O291        C305   1.277       .  A
O292        C297   1.274       .  A
O293        C296   1.271       .  A
O294        C306   1.278       .  A
O295        C308   1.265       .  A
C296        O301   1.281       .  A
C296       C1558   1.477       .  S
C297       C1429   1.486       .  S
O299        C302   1.277       .  A
O300        C302   1.266       .  A
C302       C1458   1.487       .  S
O303        C308   1.277       .  A
O304        C306   1.262       .  A
C305        O307   1.269       .  A
C305       C1409   1.496       .  S
C306       C1389   1.476       .  S
C308       C1498   1.489       .  S
Fe309       O325   2.110       .  S
Fe309       O315   2.049       .  S
Fe309       O322   2.044   1_556  S
Fe309       O314   2.108       .  S
Fe309       O320   1.938       .  S
Fe310       O313   2.111       .  S
Fe310       O317   2.039       .  S
Fe310       O321   2.102       .  S
Fe310       O326   2.018       .  S
Fe310       O320   1.929       .  S
Fe311       O329   2.062       .  S
Fe311       O316   2.110       .  S
Fe311       O323   2.105       .  S
Fe311       O312   2.051       .  S
Fe311       O320   1.942       .  S
O312        C319   1.269       .  A
O313        C327   1.278       .  A
O314        C319   1.277       .  A
O315        C318   1.270       .  A
O316        C328   1.277       .  A
O317        C330   1.266       .  A
C318        O323   1.279       .  A
C318       C1809   1.475       .  S
C319       C1378   1.495   1_556  S
O321        C324   1.276   1_556  A
O322        C324   1.267       .  A
C324       C1478   1.486       .  S
O325        C330   1.279       .  A
O326        C328   1.261       .  A
C327        O329   1.271       .  A
C327       C2618   1.498       .  S
C328       C2389   1.474       .  S
C330       C1349   1.490       .  S
Fe331       O347   2.114       .  S
Fe331       O337   2.058       .  S
Fe331       O344   2.044   1_556  S
Fe331       O336   2.105       .  S
Fe331       O342   1.933       .  S
Fe332       O335   2.106       .  S
Fe332       O339   2.037       .  S
Fe332       O343   2.094       .  S
Fe332       O348   2.030       .  S
Fe332       O342   1.928       .  S
Fe333       O351   2.061       .  S
Fe333       O338   2.093       .  S
Fe333       O345   2.090       .  S
Fe333       O334   2.063       .  S
Fe333       O342   1.942       .  S
O334        C341   1.272       .  A
O335        C349   1.279       .  A
O336        C341   1.279       .  A
O337        C340   1.271       .  A
O338        C350   1.272       .  A
O339        C352   1.266       .  A
C340        O345   1.275       .  A
C340       C1709   1.477       .  S
C341       C1289   1.497   1_556  S
O343        C346   1.274   1_556  A
O344        C346   1.266       .  A
C346       C1449   1.483       .  S
O347        C352   1.280       .  A
O348        C350   1.259       .  A
C349        O351   1.274       .  A
C349       C1338   1.495       .  S
C350       C1309   1.465       .  S
C352       C1358   1.488       .  S
Fe353       O369   2.051       .  S
Fe353       O359   2.108       .  S
Fe353       O366   2.119       .  S
Fe353       O358   2.054       .  S
Fe353       O364   1.941       .  S
Fe354       O357   2.037       .  S
Fe354       O361   2.104       .  S
Fe354       O365   2.041       .  S
Fe354       O370   2.120       .  S
Fe354       O364   1.938       .  S
Fe355       O373   2.085       .  S
Fe355       O360   2.065       .  S
Fe355       O367   2.064       .  S
Fe355       O356   2.090       .  S
Fe355       O364   1.945       .  S
O356        C363   1.275       .  A
O357        C371   1.262       .  A
O358        C363   1.271       .  A
O359        C362   1.279       .  A
O360        C372   1.273       .  A
O361        C374   1.276       .  A
C362        O367   1.272       .  A
C362       C1938   1.497       .  S
C363       C1198   1.487       .  S
O365        C368   1.267       .  A
O366        C368   1.281       .  A
C368       C1278   1.491       .  S
O369        C374   1.267       .  A
O370        C372   1.281       .  A
C371        O373   1.272       .  A
C371       C1209   1.461       .  S
C372       C1229   1.504       .  S
C374       C1249   1.488       .  S
Fe375       O391   2.055       .  S
Fe375       O381   2.104       .  S
Fe375       O388   2.117       .  S
Fe375       O380   2.047       .  S
Fe375       O386   1.941       .  S
Fe376       O379   2.030       .  S
Fe376       O383   2.078       .  S
Fe376       O387   2.041       .  S
Fe376       O392   2.100       .  S
Fe376       O386   1.932       .  S
Fe377       O395   2.095       .  S
Fe377       O382   2.072       .  S
Fe377       O389   2.074       .  S
Fe377       O378   2.086       .  S
Fe377       O386   1.960       .  S
O378        C385   1.273   1_565  A
O379        C393   1.258       .  A
O380        C385   1.268   1_565  A
O381        C384   1.281       .  A
O382        C394   1.275       .  A
O383        C396   1.270       .  A
C384        O389   1.275       .  A
C384       C1598   1.500   1_565  S
C385       C1149   1.476       .  S
O387        C390   1.269       .  A
O388        C390   1.282       .  A
C390       C1269   1.494       .  S
O391        C396   1.265       .  A
O392        C394   1.277       .  A
C393        O395   1.271       .  A
C393       C1398   1.463       .  S
C394       C1298   1.498       .  S
C396       C1178   1.484       .  S
Fe397       O413   2.036       .  S
Fe397       O403   2.100       .  S
Fe397       O410   2.107       .  S
Fe397       O402   2.038       .  S
Fe397       O408   1.941       .  S
Fe398       O401   2.010       .  S
Fe398       O405   2.117       .  S
Fe398       O409   2.042       .  S
Fe398       O414   2.102       .  S
Fe398       O408   1.939       .  S
Fe399       O417   2.097       .  S
Fe399       O404   2.058       .  S
Fe399       O411   2.058       .  S
Fe399       O400   2.104       .  S
Fe399       O408   1.945       .  S
O400        C407   1.281   1_565  A
O401        C415   1.263       .  A
O402        C407   1.272   1_565  A
O403        C406   1.274       .  A
O404        C416   1.269       .  A
O405        C418   1.279       .  A
C406        O411   1.266       .  A
C406       C1118   1.497   1_565  S
C407       C1089   1.485       .  S
O409        C412   1.262       .  A
O410        C412   1.276       .  A
C412       C1138   1.479       .  S
O413        C418   1.267       .  A
O414        C416   1.275       .  A
C415        O417   1.277       .  A
C415       C1958   1.470       .  S
C416       C2138   1.491       .  S
C418       C1258   1.493       .  S
Fe419       O435   2.048       .  S
Fe419       O425   2.099       .  S
Fe419       O432   2.109       .  S
Fe419       O424   2.049       .  S
Fe419       O430   1.952       .  S
Fe420       O423   2.011       .  S
Fe420       O427   2.095       .  S
Fe420       O431   2.040       .  S
Fe420       O436   2.086       .  S
Fe420       O430   1.944       .  S
Fe421       O439   2.106       .  S
Fe421       O426   2.059       .  S
Fe421       O433   2.055       .  S
Fe421       O422   2.103       .  S
Fe421       O430   1.952       .  S
O422        C429   1.280       .  A
O423        C437   1.263       .  A
O424        C429   1.274       .  A
O425        C428   1.274       .  A
O426        C438   1.269       .  A
O427        C440   1.275       .  A
C428        O433   1.266       .  A
C428       C1418   1.494       .  S
C429       C1078   1.489       .  S
O431        C434   1.263       .  A
O432        C434   1.276       .  A
C434       C1129   1.489       .  S
O435        C440   1.268       .  A
O436        C438   1.272       .  A
C437        O439   1.277       .  A
C437       C1609   1.474       .  S
C438       C1798   1.489       .  S
C440       C1169   1.479       .  S
Fe441       O457   2.033       .  S
Fe441       O447   2.116       .  S
Fe441       O454   2.118       .  S
Fe441       O446   2.027       .  S
Fe441       O452   1.929       .  S
Fe442       O445   2.017       .  S
Fe442       O449   2.107       .  S
Fe442       O453   2.030       .  S
Fe442       O458   2.114       .  S
Fe442       O452   1.918       .  S
Fe443       O461   2.121       .  S
Fe443       O448   2.048       .  S
Fe443       O455   2.037       .  S
Fe443       O444   2.108       .  S
Fe443       O452   1.935       .  S
O444        C451   1.279       .  A
O445        C459   1.261       .  A
O446        C451   1.265       .  A
O447        C450   1.280       .  A
O448        C460   1.267       .  A
O449        C462   1.276       .  A
C450        O455   1.267       .  A
C450       C1678   1.491       .  S
C451       C2309   1.478       .  S
O453        C456   1.264       .  A
O454        C456   1.281       .  A
C456       C1058   1.488       .  S
O457        C462   1.264       .  A
O458        C460   1.280       .  A
C459        O461   1.279       .  A
C459       C1529   1.481       .  S
C460       C1369   1.492       .  S
C462       C1029   1.484       .  S
Fe463       O479   2.056       .  S
Fe463       O469   2.105       .  S
Fe463       O476   2.106       .  S
Fe463       O468   2.054       .  S
Fe463       O474   1.949       .  S
Fe464       O467   2.037       .  S
Fe464       O471   2.075       .  S
Fe464       O475   2.044       .  S
Fe464       O480   2.090       .  S
Fe464       O474   1.940       .  S
Fe465       O483   2.093       .  S
Fe465       O470   2.066       .  S
Fe465       O477   2.068       .  S
Fe465       O466   2.080       .  S
Fe465       O474   1.953       .  S
O466        C473   1.273       .  A
O467        C481   1.263       .  A
O468        C473   1.270       .  A
O469        C472   1.278       .  A
O470        C482   1.270       .  A
O471        C484   1.270       .  A
C472        O477   1.274       .  A
C472       C2009   1.501       .  S
C473       C2229   1.482       .  S
O475        C478   1.268       .  A
O476        C478   1.278       .  A
C478       C1049   1.489       .  S
O479        C484   1.268       .  A
O480        C482   1.275       .  A
C481        O483   1.273       .  A
C481        C998   1.464       .  S
C482       C1009   1.494       .  S
C484        C969   1.475       .  S
Fe485       O501   2.040       .  S
Fe485       O491   2.114       .  S
Fe485       O498   2.131       .  S
Fe485       O490   2.050       .  S
Fe485       O496   1.947       .  S
Fe486       O489   2.009       .  S
Fe486       O493   2.109       .  S
Fe486       O497   2.032       .  S
Fe486       O502   2.108       .  S
Fe486       O496   1.937       .  S
Fe487       O505   2.115       .  S
Fe487       O492   2.059       .  S
Fe487       O499   2.057       .  S
Fe487       O488   2.113       .  S
Fe487       O496   1.945       .  S
O488        C495   1.282       .  A
O489        C503   1.262       .  A
O490        C495   1.274       .  A
O491        C494   1.277       .  A
O492        C504   1.270       .  A
O493        C506   1.278       .  A
C494        O499   1.268       .  A
C494       C1509   1.501       .  S
C495       C2518   1.491       .  S
O497        C500   1.263       .  A
O498        C500   1.280       .  A
C500        C949   1.492       .  S
O501        C506   1.267       .  A
O502        C504   1.277       .  A
C503        O505   1.279       .  A
C503       C1689   1.477       .  S
C504       C1878   1.496       .  S
C506       C1038   1.488       .  S
Fe507       O523   2.040       .  S
Fe507       O513   2.100       .  S
Fe507       O520   2.106       .  S
Fe507       O512   2.041       .  S
Fe507       O518   1.937       .  S
Fe508       O511   2.032       .  S
Fe508       O515   2.094       .  S
Fe508       O519   2.049       .  S
Fe508       O524   2.112       .  S
Fe508       O518   1.930       .  S
Fe509       O527   2.092       .  S
Fe509       O514   2.056       .  S
Fe509       O521   2.061       .  S
Fe509       O510   2.084       .  S
Fe509       O518   1.947       .  S
O510        C517   1.274       .  A
O511        C525   1.260       .  A
O512        C517   1.269       .  A
O513        C516   1.277       .  A
O514        C526   1.271       .  A
O515        C528   1.275       .  A
C516        O521   1.271       .  A
C516        C929   1.494       .  S
C517       C2418   1.474       .  S
O519        C522   1.268       .  A
O520        C522   1.278       .  A
C522        C958   1.490       .  S
O523        C528   1.266       .  A
O524        C526   1.280       .  A
C525        O527   1.272       .  A
C525       C2038   1.460       .  S
C526       C2218   1.493       .  S
C528        C978   1.478       .  S
Fe529       O545   2.125       .  S
Fe529       O535   2.051   1_545  S
Fe529       O542   2.049       .  S
Fe529       O534   2.107   1_545  S
Fe529       O540   1.938       .  S
Fe530       O533   2.090       .  S
Fe530       O537   2.036       .  S
Fe530       O541   2.090       .  S
Fe530       O546   2.016       .  S
Fe530       O540   1.931       .  S
Fe531       O549   2.064       .  S
Fe531       O536   2.114       .  S
Fe531       O543   2.120   1_545  S
Fe531       O532   2.057       .  S
Fe531       O540   1.941       .  S
O532        C539   1.266   1_545  A
O533        C547   1.275       .  A
O534        C539   1.276       .  A
O535        C538   1.274       .  A
O536        C548   1.279       .  A
O537        C550   1.265       .  A
C538        O543   1.284       .  A
C538       C1978   1.496       .  S
C539       C2258   1.484       .  S
O541        C544   1.273       .  A
O542        C544   1.268       .  A
C544        C898   1.485       .  S
O545        C550   1.281       .  A
O546        C548   1.262       .  A
C547        O549   1.270       .  A
C547        C938   1.491       .  S
C548        C989   1.476       .  S
C550        C909   1.494       .  S
Fe551       O567   2.124       .  S
Fe551       O557   2.030       .  S
Fe551       O564   2.035       .  S
Fe551       O556   2.117       .  S
Fe551       O562   1.934       .  S
Fe552       O555   2.104       .  S
Fe552       O559   2.038       .  S
Fe552       O563   2.099       .  S
Fe552       O568   2.013       .  S
Fe552       O562   1.928       .  S
Fe553       O571   2.060       .  S
Fe553       O558   2.102       .  S
Fe553       O565   2.098       .  S
Fe553       O554   2.052       .  S
Fe553       O562   1.942       .  S
O554        C561   1.268       .  A
O555        C569   1.276       .  A
O556        C561   1.279       .  A
O557        C560   1.269       .  A
O558        C570   1.278       .  A
O559        C572   1.266       .  A
C560        O565   1.278       .  A
C560       C1889   1.476       .  S
C561        C858   1.498       .  S
O563        C566   1.275       .  A
O564        C566   1.266       .  A
C566        C869   1.483       .  S
O567        C572   1.280       .  A
O568        C570   1.262       .  A
C569        O571   1.269       .  A
C569       C1109   1.498       .  S
C570       C1218   1.472       .  S
C572        C918   1.493       .  S
Fe573       O589   2.114       .  S
Fe573       O579   2.048       .  S
Fe573       O586   2.038   1_556  S
Fe573       O578   2.108       .  S
Fe573       O584   1.937       .  S
Fe574       O577   2.108       .  S
Fe574       O581   2.047       .  S
Fe574       O585   2.104       .  S
Fe574       O590   2.021       .  S
Fe574       O584   1.929       .  S
Fe575       O593   2.049       .  S
Fe575       O580   2.117       .  S
Fe575       O587   2.107       .  S
Fe575       O576   2.055       .  S
Fe575       O584   1.935       .  S
O576        C583   1.269       .  A
O577        C591   1.278       .  A
O578        C583   1.276       .  A
O579        C582   1.272       .  A
O580        C592   1.279       .  A
O581        C594   1.264       .  A
C582        O587   1.281       .  A
C582       C2158   1.475       .  S
C583       C1018   1.494   1_556  S
O585        C588   1.278   1_556  A
O586        C588   1.268       .  A
C588        C889   1.480       .  S
O589        C594   1.277       .  A
O590        C592   1.262       .  A
C591        O593   1.269       .  A
C591       C2438   1.493       .  S
C592       C2278   1.486       .  S
C594        C829   1.489       .  S
Fe595       O611   2.118       .  S
Fe595       O601   2.045   1_545  S
Fe595       O608   2.041   1_556  S
Fe595       O600   2.105   1_545  S
Fe595       O606   1.934       .  S
Fe596       O599   2.095       .  S
Fe596       O603   2.044       .  S
Fe596       O607   2.093       .  S
Fe596       O612   2.032       .  S
Fe596       O606   1.935       .  S
Fe597       O615   2.059       .  S
Fe597       O602   2.108       .  S
Fe597       O609   2.101       .  S
Fe597       O598   2.071       .  S
Fe597       O606   1.945       .  S
O598        C605   1.272       .  A
O599        C613   1.275       .  A
O600        C605   1.279   1_565  A
O601        C604   1.269       .  A
O602        C614   1.276       .  A
O603        C616   1.267       .  A
C604        O609   1.279   1_565  A
C604       C2049   1.485       .  S
C605       C1238   1.503   1_546  S
O607        C610   1.272   1_556  A
O608        C610   1.265       .  A
C610        C878   1.481       .  S
O611        C616   1.281       .  A
O612        C614   1.262       .  A
C613        O615   1.270       .  A
C613        C809   1.491       .  S
C614        C798   1.460       .  S
C616        C838   1.486       .  S
Fe617       O633   2.039       .  S
Fe617       O623   2.101       .  S
Fe617       O630   2.122       .  S
Fe617       O622   2.044       .  S
Fe617       O628   1.944       .  S
Fe618       O621   2.012       .  S
Fe618       O625   2.107       .  S
Fe618       O629   2.031       .  S
Fe618       O634   2.098       .  S
Fe618       O628   1.933       .  S
Fe619       O637   2.109       .  S
Fe619       O624   2.063       .  S
Fe619       O631   2.050       .  S
Fe619       O620   2.101       .  S
Fe619       O628   1.946       .  S
O620        C627   1.279       .  A
O621        C635   1.262       .  A
O622        C627   1.272       .  A
O623        C626   1.276       .  A
O624        C636   1.270       .  A
O625        C638   1.276       .  A
C626        O631   1.267       .  A
C626        C818   1.490       .  S
C627       C1098   1.479       .  S
O629        C632   1.263       .  A
O630        C632   1.279       .  A
C632        C778   1.490       .  S
O633        C638   1.266       .  A
O634        C636   1.276       .  A
C635        O637   1.278       .  A
C635       C2089   1.472       .  S
C636       C1918   1.497       .  S
C638        C749   1.486       .  S
Fe639       O655   2.038       .  S
Fe639       O645   2.099       .  S
Fe639       O652   2.114       .  S
Fe639       O644   2.046       .  S
Fe639       O650   1.940       .  S
Fe640       O643   2.018       .  S
Fe640       O647   2.102       .  S
Fe640       O651   2.038       .  S
Fe640       O656   2.100       .  S
Fe640       O650   1.935       .  S
Fe641       O659   2.100       .  S
Fe641       O646   2.061       .  S
Fe641       O653   2.058       .  S
Fe641       O642   2.098       .  S
Fe641       O650   1.947       .  S
O642        C649   1.278       .  A
O643        C657   1.264       .  A
O644        C649   1.270       .  A
O645        C648   1.277       .  A
O646        C658   1.270       .  A
O647        C660   1.275       .  A
C648        O653   1.269       .  A
C648       C1329   1.495       .  S
C649       C1069   1.484       .  S
O651        C654   1.266       .  A
O652        C654   1.280       .  A
C654        C769   1.485       .  S
O655        C660   1.265       .  A
O656        C658   1.276       .  A
C657        O659   1.275       .  A
C657       C1738   1.472       .  S
C658       C1569   1.496       .  S
C660        C738   1.487       .  S
Fe661       O677   2.041   1_554  S
Fe661       O667   2.103   1_554  S
Fe661       O674   2.114       .  S
Fe661       O666   2.045       .  S
Fe661       O672   1.945       .  S
Fe662       O665   2.018       .  S
Fe662       O669   2.109   1_554  S
Fe662       O673   2.042       .  S
Fe662       O678   2.109       .  S
Fe662       O672   1.940       .  S
Fe663       O681   2.113       .  S
Fe663       O668   2.059       .  S
Fe663       O675   2.056       .  S
Fe663       O664   2.106       .  S
Fe663       O672   1.948       .  S
O664        C671   1.280       .  A
O665        C679   1.262       .  A
O666        C671   1.270       .  A
O667        C670   1.276       .  A
O668        C680   1.270       .  A
O669        C682   1.277       .  A
C670        O675   1.269   1_556  A
C670       C2118   1.495       .  S
C671       C1189   1.486       .  S
O673        C676   1.266       .  A
O674        C676   1.279       .  A
C676        C709   1.491       .  S
O677        C682   1.265       .  A
O678        C680   1.279       .  A
C679        O681   1.277       .  A
C679        C789   1.471       .  S
C680        C849   1.500       .  S
C682        C758   1.493       .  S
Fe683       O699   2.042   1_554  S
Fe683       O689   2.109   1_554  S
Fe683       O696   2.117       .  S
Fe683       O688   2.039       .  S
Fe683       O694   1.940       .  S
Fe684       O687   2.019   1_554  S
Fe684       O691   2.095   1_554  S
Fe684       O695   2.040       .  S
Fe684       O700   2.086       .  S
Fe684       O694   1.934       .  S
Fe685       O703   2.100       .  S
Fe685       O690   2.061       .  S
Fe685       O697   2.057   1_554  S
Fe685       O686   2.104       .  S
Fe685       O694   1.942       .  S
O686        C693   1.281       .  A
O687        C701   1.263   1_556  A
O688        C693   1.271       .  A
O689        C692   1.274       .  A
O690        C702   1.270       .  A
O691        C704   1.275       .  A
C692        O697   1.266       .  A
C692       C1758   1.483       .  S
C693       C1158   1.484       .  S
O695        C698   1.264       .  A
O696        C698   1.279       .  A
C698        C718   1.492       .  S
O699        C704   1.268       .  A
O700        C702   1.274       .  A
C701        O703   1.276       .  A
C701       C1318   1.477   1_554  S
C702       C1438   1.489       .  S
C704        C729   1.477       .  S
C705        C706   1.403       .  A
C705        C710   1.402       .  A
C705        H715   1.083       .  S
C706        C711   1.479       .  S
C706        C707   1.401       .  A
C707        C708   1.400       .  A
C707        F712   1.357       .  S
C708        C709   1.412       .  A
C708        H713   1.083       .  S
C709        C710   1.410       .  A
C710        F714   1.357       .  S
C711        C716   1.405       .  A
C711        C720   1.399       .  A
C716        C717   1.401       .  A
C716        F721   1.357       .  S
C717        C718   1.407       .  A
C717        H722   1.084       .  S
C718        C719   1.416       .  A
C719        C720   1.401       .  A
C719        F723   1.358       .  S
C720        H724   1.084       .  S
C725        C726   1.401       .  A
C725        C730   1.393       .  A
C725        H735   1.084       .  S
C726        C731   1.478       .  S
C726        C727   1.407       .  A
C727        C728   1.401       .  A
C727        F732   1.357       .  S
C728        C729   1.406       .  A
C728        H733   1.083       .  S
C729        C730   1.408       .  A
C730        F734   1.358       .  S
C731        C736   1.403       .  A
C731        C740   1.405       .  A
C736        C737   1.395       .  A
C736        F741   1.358       .  S
C737        C738   1.409       .  A
C737        H742   1.083       .  S
C738        C739   1.410       .  A
C739        C740   1.400       .  A
C739        F743   1.357       .  S
C740        H744   1.084       .  S
C745        C746   1.409       .  A
C745        C750   1.405       .  A
C745        H755   1.083       .  S
C746        C751   1.489       .  S
C746        C747   1.405       .  A
C747        C748   1.395       .  A
C747        F752   1.358       .  S
C748        C749   1.407       .  A
C748        H753   1.083       .  S
C749        C750   1.408       .  A
C750        F754   1.357       .  S
C751        C756   1.409       .  A
C751        C760   1.401       .  A
C756        C757   1.403       .  A
C756        F761   1.357       .  S
C757        C758   1.407       .  A
C757        H762   1.083       .  S
C758        C759   1.415       .  A
C759        C760   1.398       .  A
C759        F763   1.358       .  S
C760        H764   1.084       .  S
C765        C766   1.399       .  A
C765        C770   1.400       .  A
C765        H775   1.083       .  S
C766        C771   1.478       .  S
C766        C767   1.405       .  A
C767        C768   1.401       .  A
C767        F772   1.358       .  S
C768        C769   1.406       .  A
C768        H773   1.083       .  S
C769        C770   1.412       .  A
C770        F774   1.357       .  S
C771        C776   1.399       .  A
C771        C780   1.405       .  A
C776        C777   1.395       .  A
C776        F781   1.358       .  S
C777        C778   1.412       .  A
C777        H782   1.083       .  S
C778        C779   1.409       .  A
C779        C780   1.404       .  A
C779        F783   1.357       .  S
C780        H784   1.084       .  S
C785        C786   1.403       .  A
C785        C790   1.392       .  A
C785        H795   1.082       .  S
C786        C791   1.485       .  S
C786        C787   1.411   1_556  A
C787        C788   1.402       .  A
C787        F792   1.357       .  S
C788        C789   1.402       .  A
C788        H793   1.083       .  S
C789        C790   1.407   1_554  A
C790        F794   1.358       .  S
C791        C796   1.408       .  A
C791        C800   1.409   1_556  A
C796        C797   1.395       .  A
C796        F801   1.358       .  S
C797        C798   1.401       .  A
C797        H802   1.083       .  S
C798        C799   1.401       .  A
C799        C800   1.399   1_556  A
C799        F803   1.357   1_556  S
C800        H804   1.082       .  S
C805        C806   1.403       .  A
C805        C810   1.401       .  A
C805        H815   1.084       .  S
C806        C811   1.487       .  S
C806        C807   1.406       .  A
C807        C808   1.399       .  A
C807        F812   1.358       .  S
C808        C809   1.409       .  A
C808        H813   1.084       .  S
C809        C810   1.412       .  A
C810        F814   1.357       .  S
C811        C816   1.408       .  A
C811        C820   1.401       .  A
C816        C817   1.403       .  A
C816        F821   1.358       .  S
C817        C818   1.407       .  A
C817        H822   1.083       .  S
C818        C819   1.413       .  A
C819        C820   1.398       .  A
C819        F823   1.357       .  S
C820        H824   1.084       .  S
C825        C826   1.403       .  A
C825        C830   1.404       .  A
C825        H835   1.083       .  S
C826        C831   1.485       .  S
C826        C827   1.406       .  A
C827        C828   1.400       .  A
C827        F832   1.358       .  S
C828        C829   1.406       .  A
C828        H833   1.083       .  S
C829        C830   1.412       .  A
C830        F834   1.357       .  S
C831        C836   1.407       .  A
C831        C840   1.403       .  A
C836        C837   1.400       .  A
C836        F841   1.357       .  S
C837        C838   1.405       .  A
C837        H842   1.084       .  S
C838        C839   1.412       .  A
C839        C840   1.403       .  A
C839        F843   1.358       .  S
C840        H844   1.083       .  S
C845        C846   1.405       .  A
C845        C850   1.403       .  A
C845        H855   1.083       .  S
C846        C851   1.500       .  S
C846        C847   1.411       .  A
C847        C848   1.405       .  A
C847        F852   1.357       .  S
C848        C849   1.408       .  A
C848        H853   1.083       .  S
C849        C850   1.414       .  A
C850        F854   1.357       .  S
C851        C856   1.408       .  A
C851        C860   1.410       .  A
C856        C857   1.402       .  A
C856        F861   1.357       .  S
C857        C858   1.410       .  A
C857        H862   1.083       .  S
C858        C859   1.409       .  A
C859        C860   1.406       .  A
C859        F863   1.357       .  S
C860        H864   1.083       .  S
C865        C866   1.405       .  A
C865        C870   1.398       .  A
C865        H875   1.083       .  S
C866        C871   1.481       .  S
C866        C867   1.405       .  A
C867        C868   1.395       .  A
C867        F872   1.358       .  S
C868        C869   1.408       .  A
C868        H873   1.083       .  S
C869        C870   1.408       .  A
C870        F874   1.357       .  S
C871        C876   1.405       .  A
C871        C880   1.405       .  A
C876        C877   1.393       .  A
C876        F881   1.358       .  S
C877        C878   1.406       .  A
C877        H882   1.083       .  S
C878        C879   1.409       .  A
C879        C880   1.400       .  A
C879        F883   1.357       .  S
C880        H884   1.083       .  S
C885        C886   1.403       .  A
C885        C890   1.395       .  A
C885        H895   1.083       .  S
C886        C891   1.484       .  S
C886        C887   1.408       .  A
C887        C888   1.399       .  A
C887        F892   1.357       .  S
C888        C889   1.405       .  A
C888        H893   1.083       .  S
C889        C890   1.410       .  A
C890        F894   1.358       .  S
C891        C896   1.407       .  A
C891        C900   1.403       .  A
C896        C897   1.399       .  A
C896        F901   1.358       .  S
C897        C898   1.408       .  A
C897        H902   1.083       .  S
C898        C899   1.410       .  A
C899        C900   1.395       .  A
C899        F903   1.357       .  S
C900        H904   1.083       .  S
C905        C906   1.408       .  A
C905        C910   1.404       .  A
C905        H915   1.083       .  S
C906        C911   1.490       .  S
C906        C907   1.403       .  A
C907        C908   1.400       .  A
C907        F912   1.358       .  S
C908        C909   1.412       .  A
C908        H913   1.083       .  S
C909        C910   1.410       .  A
C910        F914   1.357       .  S
C911        C916   1.403       .  A
C911        C920   1.408       .  A
C916        C917   1.398       .  A
C916        F921   1.358       .  S
C917        C918   1.411       .  A
C917        H922   1.083       .  S
C918        C919   1.410       .  A
C919        C920   1.405       .  A
C919        F923   1.357       .  S
C920        H924   1.083       .  S
C925        C926   1.405   1_455  A
C925        C930   1.400   1_455  A
C925        H935   1.081       .  S
C926        C931   1.490   1_655  S
C926        C927   1.407       .  A
C927        C928   1.402       .  A
C927        F932   1.357       .  S
C928        C929   1.409       .  A
C928        H933   1.080       .  S
C929        C930   1.412       .  A
C930        F934   1.357   1_655  S
C931        C936   1.407       .  A
C931        C940   1.406       .  A
C936        C937   1.399       .  A
C936        F941   1.358       .  S
C937        C938   1.407       .  A
C937        H942   1.086       .  S
C938        C939   1.411       .  A
C939        C940   1.403       .  A
C939        F943   1.357       .  S
C940        H944   1.086   1_455  S
C945        C946   1.408       .  A
C945        C950   1.407       .  A
C945        H955   1.083       .  S
C946        C951   1.488       .  S
C946        C947   1.402       .  A
C947        C948   1.397       .  A
C947        F952   1.358       .  S
C948        C949   1.411       .  A
C948        H953   1.083       .  S
C949        C950   1.408       .  A
C950        F954   1.357       .  S
C951        C956   1.407       .  A
C951        C960   1.403       .  A
C956        C957   1.400       .  A
C956        F961   1.358       .  S
C957        C958   1.407       .  A
C957        H962   1.083       .  S
C958        C959   1.412       .  A
C959        C960   1.403       .  A
C959        F963   1.357       .  S
C960        H964   1.084       .  S
C965        C966   1.407       .  A
C965        C970   1.399       .  A
C965        H975   1.083       .  S
C966        C971   1.486       .  S
C966        C967   1.409       .  A
C967        C968   1.395       .  A
C967        F972   1.358       .  S
C968        C969   1.403       .  A
C968        H973   1.084       .  S
C969        C970   1.406       .  A
C970        F974   1.357       .  S
C971        C976   1.409       .  A
C971        C980   1.405       .  A
C976        C977   1.397       .  A
C976        F981   1.357       .  S
C977        C978   1.403       .  A
C977        H982   1.084       .  S
C978        C979   1.409       .  A
C979        C980   1.397       .  A
C979        F983   1.358       .  S
C980        H984   1.083       .  S
C985        C986   1.402   1_455  A
C985        C990   1.392       .  A
C985        H995   1.082       .  S
C986        C991   1.486       .  S
C986        C987   1.412       .  A
C987        C988   1.399       .  A
C987        F992   1.357       .  S
C988        C989   1.401   1_655  A
C988        H993   1.083       .  S
C989        C990   1.411       .  A
C990        F994   1.359       .  S
C991        C996   1.411       .  A
C991       C1000   1.406       .  A
C996        C997   1.396       .  A
C996       F1001   1.357       .  S
C997        C998   1.401       .  A
C997       H1002   1.084       .  S
C998        C999   1.404       .  A
C999       C1000   1.395       .  A
C999       F1003   1.358       .  S
C1000      H1004   1.083   1_655  S
C1005      C1006   1.406       .  A
C1005      C1010   1.405       .  A
C1005      H1015   1.084       .  S
C1006      C1011   1.493       .  S
C1006      C1007   1.408       .  A
C1007      C1008   1.399       .  A
C1007      F1012   1.357       .  S
C1008      C1009   1.408       .  A
C1008      H1013   1.084       .  S
C1009      C1010   1.412       .  A
C1010      F1014   1.357       .  S
C1011      C1016   1.406       .  A
C1011      C1020   1.407   1_655  A
C1016      C1017   1.399       .  A
C1016      F1021   1.358       .  S
C1017      C1018   1.408   1_655  A
C1017      H1022   1.083   1_554  S
C1018      C1019   1.411       .  A
C1019      C1020   1.405       .  A
C1019      F1023   1.357       .  S
C1020      H1024   1.083       .  S
C1025      C1026   1.407       .  A
C1025      C1030   1.401       .  A
C1025      H1035   1.083       .  S
C1026      C1031   1.483       .  S
C1026      C1027   1.405       .  A
C1027      C1028   1.395       .  A
C1027      F1032   1.358       .  S
C1028      C1029   1.408       .  A
C1028      H1033   1.083       .  S
C1029      C1030   1.407       .  A
C1030      F1034   1.357       .  S
C1031      C1036   1.408       .  A
C1031      C1040   1.401       .  A
C1036      C1037   1.403       .  A
C1036      F1041   1.357       .  S
C1037      C1038   1.408       .  A
C1037      H1042   1.083       .  S
C1038      C1039   1.412       .  A
C1039      C1040   1.394       .  A
C1039      F1043   1.358       .  S
C1040      H1044   1.084       .  S
C1045      C1046   1.406       .  A
C1045      C1050   1.401       .  A
C1045      H1055   1.083       .  S
C1046      C1051   1.484       .  S
C1046      C1047   1.402       .  A
C1047      C1048   1.397       .  A
C1047      F1052   1.358       .  S
C1048      C1049   1.411       .  A
C1048      H1053   1.083       .  S
C1049      C1050   1.410       .  A
C1050      F1054   1.357       .  S
C1051      C1056   1.409       .  A
C1051      C1060   1.400       .  A
C1056      C1057   1.400       .  A
C1056      F1061   1.357       .  S
C1057      C1058   1.405       .  A
C1057      H1062   1.083       .  S
C1058      C1059   1.416       .  A
C1059      C1060   1.397       .  A
C1059      F1063   1.358       .  S
C1060      H1064   1.084       .  S
C1065      C1066   1.403       .  A
C1065      C1070   1.394       .  A
C1065      H1075   1.083       .  S
C1066      C1071   1.487       .  S
C1066      C1067   1.408       .  A
C1067      C1068   1.402       .  A
C1067      F1072   1.357       .  S
C1068      C1069   1.407       .  A
C1068      H1073   1.083       .  S
C1069      C1070   1.410       .  A
C1070      F1074   1.358       .  S
C1071      C1076   1.406       .  A
C1071      C1080   1.406       .  A
C1076      C1077   1.394       .  A
C1076      F1081   1.358       .  S
C1077      C1078   1.408       .  A
C1077      H1082   1.083       .  S
C1078      C1079   1.411       .  A
C1079      C1080   1.403       .  A
C1079      F1083   1.357       .  S
C1080      H1084   1.083       .  S
C1085      C1086   1.405       .  A
C1085      C1090   1.402       .  A
C1085      H1095   1.084       .  S
C1086      C1091   1.480       .  S
C1086      C1087   1.403       .  A
C1087      C1088   1.391       .  A
C1087      F1092   1.358       .  S
C1088      C1089   1.408       .  A
C1088      H1093   1.084       .  S
C1089      C1090   1.411       .  A
C1090      F1094   1.357       .  S
C1091      C1096   1.407       .  A
C1091      C1100   1.401       .  A
C1096      C1097   1.403       .  A
C1096      F1101   1.357       .  S
C1097      C1098   1.406       .  A
C1097      H1102   1.084       .  S
C1098      C1099   1.409       .  A
C1099      C1100   1.392       .  A
C1099      F1103   1.358       .  S
C1100      H1104   1.084       .  S
C1105      C1106   1.405       .  A
C1105      C1110   1.402       .  A
C1105      H1115   1.084       .  S
C1106      C1111   1.497       .  S
C1106      C1107   1.409       .  A
C1107      C1108   1.404       .  A
C1107      F1112   1.357       .  S
C1108      C1109   1.409       .  A
C1108      H1113   1.084       .  S
C1109      C1110   1.413       .  A
C1110      F1114   1.357       .  S
C1111      C1116   1.410       .  A
C1111      C1120   1.405       .  A
C1116      C1117   1.404       .  A
C1116      F1121   1.357       .  S
C1117      C1118   1.407       .  A
C1117      H1122   1.084       .  S
C1118      C1119   1.414   1_545  A
C1119      C1120   1.402   1_565  A
C1119      F1123   1.357       .  S
C1120      H1124   1.084       .  S
C1125      C1126   1.404       .  A
C1125      C1130   1.399       .  A
C1125      H1135   1.084       .  S
C1126      C1131   1.480       .  S
C1126      C1127   1.401       .  A
C1127      C1128   1.401       .  A
C1127      F1132   1.358       .  S
C1128      C1129   1.412       .  A
C1128      H1133   1.083       .  S
C1129      C1130   1.409       .  A
C1130      F1134   1.357       .  S
C1131      C1136   1.405       .  A
C1131      C1140   1.403       .  A
C1136      C1137   1.396       .  A
C1136      F1141   1.358       .  S
C1137      C1138   1.403       .  A
C1137      H1142   1.084       .  S
C1138      C1139   1.411       .  A
C1139      C1140   1.403       .  A
C1139      F1143   1.358       .  S
C1140      H1144   1.083       .  S
C1145      C1146   1.407       .  A
C1145      C1150   1.401       .  A
C1145      H1155   1.083       .  S
C1146      C1151   1.481       .  S
C1146      C1147   1.404       .  A
C1147      C1148   1.392       .  A
C1147      F1152   1.358       .  S
C1148      C1149   1.404       .  A
C1148      H1153   1.084       .  S
C1149      C1150   1.407       .  A
C1150      F1154   1.357       .  S
C1151      C1156   1.406       .  A
C1151      C1160   1.401       .  A
C1156      C1157   1.400       .  A
C1156      F1161   1.357       .  S
C1157      C1158   1.407       .  A
C1157      H1162   1.083       .  S
C1158      C1159   1.412       .  A
C1159      C1160   1.393       .  A
C1159      F1163   1.358       .  S
C1160      H1164   1.083       .  S
C1165      C1166   1.407       .  A
C1165      C1170   1.398       .  A
C1165      H1175   1.083       .  S
C1166      C1171   1.490       .  S
C1166      C1167   1.409       .  A
C1167      C1168   1.401       .  A
C1167      F1172   1.357       .  S
C1168      C1169   1.405       .  A
C1168      H1173   1.083       .  S
C1169      C1170   1.406       .  A
C1170      F1174   1.357       .  S
C1171      C1176   1.409       .  A
C1171      C1180   1.406       .  A
C1176      C1177   1.396       .  A
C1176      F1181   1.357       .  S
C1177      C1178   1.404       .  A
C1177      H1182   1.084       .  S
C1178      C1179   1.410       .  A
C1179      C1180   1.402       .  A
C1179      F1183   1.358       .  S
C1180      H1184   1.083       .  S
C1185      C1186   1.401       .  A
C1185      C1190   1.395       .  A
C1185      H1195   1.084       .  S
C1186      C1191   1.482       .  S
C1186      C1187   1.407       .  A
C1187      C1188   1.403       .  A
C1187      F1192   1.357       .  S
C1188      C1189   1.407       .  A
C1188      H1193   1.083       .  S
C1189      C1190   1.412       .  A
C1190      F1194   1.358       .  S
C1191      C1196   1.404       .  A
C1191      C1200   1.404       .  A
C1196      C1197   1.396       .  A
C1196      F1201   1.357       .  S
C1197      C1198   1.407       .  A
C1197      H1202   1.083       .  S
C1198      C1199   1.412       .  A
C1199      C1200   1.402       .  A
C1199      F1203   1.358       .  S
C1200      H1204   1.084       .  S
C1205      C1206   1.403       .  A
C1205      C1210   1.390       .  A
C1205      H1215   1.083       .  S
C1206      C1211   1.476   1_565  S
C1206      C1207   1.409       .  A
C1207      C1208   1.396       .  A
C1207      F1212   1.358       .  S
C1208      C1209   1.401       .  A
C1208      H1213   1.083       .  S
C1209      C1210   1.404       .  A
C1210      F1214   1.357       .  S
C1211      C1216   1.408       .  A
C1211      C1220   1.400       .  A
C1216      C1217   1.397       .  A
C1216      F1221   1.357       .  S
C1217      C1218   1.403       .  A
C1217      H1222   1.083       .  S
C1218      C1219   1.412       .  A
C1219      C1220   1.387       .  A
C1219      F1223   1.359       .  S
C1220      H1224   1.083       .  S
C1225      C1226   1.406       .  A
C1225      C1230   1.403       .  A
C1225      H1235   1.084       .  S
C1226      C1231   1.503       .  S
C1226      C1227   1.411       .  A
C1227      C1228   1.409       .  A
C1227      F1232   1.357       .  S
C1228      C1229   1.412       .  A
C1228      H1233   1.083       .  S
C1229      C1230   1.413       .  A
C1230      F1234   1.357       .  S
C1231      C1236   1.410       .  A
C1231      C1240   1.407       .  A
C1236      C1237   1.408       .  A
C1236      F1241   1.357       .  S
C1237      C1238   1.412       .  A
C1237      H1242   1.083   1_565  S
C1238      C1239   1.411       .  A
C1239      C1240   1.403       .  A
C1239      F1243   1.357       .  S
C1240      H1244   1.083       .  S
C1245      C1246   1.408       .  A
C1245      C1250   1.402       .  A
C1245      H1255   1.083       .  S
C1246      C1251   1.491       .  S
C1246      C1247   1.408       .  A
C1247      C1248   1.400       .  A
C1247      F1252   1.357       .  S
C1248      C1249   1.408       .  A
C1248      H1253   1.083       .  S
C1249      C1250   1.408       .  A
C1250      F1254   1.357       .  S
C1251      C1256   1.410       .  A
C1251      C1260   1.402       .  A
C1256      C1257   1.406       .  A
C1256      F1261   1.357       .  S
C1257      C1258   1.408       .  A
C1257      H1262   1.083       .  S
C1258      C1259   1.413       .  A
C1259      C1260   1.395       .  A
C1259      F1263   1.358       .  S
C1260      H1264   1.084       .  S
C1265      C1266   1.405       .  A
C1265      C1270   1.404       .  A
C1265      H1275   1.084       .  S
C1266      C1271   1.484       .  S
C1266      C1267   1.401       .  A
C1267      C1268   1.398       .  A
C1267      F1272   1.358       .  S
C1268      C1269   1.412       .  A
C1268      H1273   1.083       .  S
C1269      C1270   1.411       .  A
C1270      F1274   1.357       .  S
C1271      C1276   1.407       .  A
C1271      C1280   1.400       .  A
C1276      C1277   1.403       .  A
C1276      F1281   1.358       .  S
C1277      C1278   1.407       .  A
C1277      H1282   1.083       .  S
C1278      C1279   1.414       .  A
C1279      C1280   1.400       .  A
C1279      F1283   1.358       .  S
C1280      H1284   1.083       .  S
C1285      C1286   1.406       .  A
C1285      C1290   1.404       .  A
C1285      H1295   1.084       .  S
C1286      C1291   1.497       .  S
C1286      C1287   1.409       .  A
C1287      C1288   1.402       .  A
C1287      F1292   1.357       .  S
C1288      C1289   1.408       .  A
C1288      H1293   1.083       .  S
C1289      C1290   1.413       .  A
C1290      F1294   1.357       .  S
C1291      C1296   1.409       .  A
C1291      C1300   1.405       .  A
C1296      C1297   1.403       .  A
C1296      F1301   1.357       .  S
C1297      C1298   1.408       .  A
C1297      H1302   1.083       .  S
C1298      C1299   1.415       .  A
C1299      C1300   1.403       .  A
C1299      F1303   1.357       .  S
C1300      H1304   1.083       .  S
C1305      C1306   1.406       .  A
C1305      C1310   1.393       .  A
C1305      H1315   1.082   1_556  S
C1306      C1311   1.483       .  S
C1306      C1307   1.410       .  A
C1307      C1308   1.395       .  A
C1307      F1312   1.358       .  S
C1308      C1309   1.403       .  A
C1308      H1313   1.083       .  S
C1309      C1310   1.403       .  A
C1310      F1314   1.358   1_556  S
C1311      C1316   1.411       .  A
C1311      C1320   1.401       .  A
C1316      C1317   1.399       .  A
C1316      F1321   1.358       .  S
C1317      C1318   1.403       .  A
C1317      H1322   1.083   1_556  S
C1318      C1319   1.411       .  A
C1319      C1320   1.389       .  A
C1319      F1323   1.359       .  S
C1320      H1324   1.082       .  S
C1325      C1326   1.406       .  A
C1325      C1330   1.402       .  A
C1325      H1335   1.083       .  S
C1326      C1331   1.497       .  S
C1326      C1327   1.410       .  A
C1327      C1328   1.401       .  A
C1327      F1332   1.357       .  S
C1328      C1329   1.407       .  A
C1328      H1333   1.084       .  S
C1329      C1330   1.414       .  A
C1330      F1334   1.358       .  S
C1331      C1336   1.409       .  A
C1331      C1340   1.406       .  A
C1336      C1337   1.402       .  A
C1336      F1341   1.357       .  S
C1337      C1338   1.409       .  A
C1337      H1342   1.083       .  S
C1338      C1339   1.412       .  A
C1339      C1340   1.401       .  A
C1339      F1343   1.357       .  S
C1340      H1344   1.084       .  S
C1345      C1346   1.399       .  A
C1345      C1350   1.397       .  A
C1345      H1355   1.084       .  S
C1346      C1351   1.479       .  S
C1346      C1347   1.406       .  A
C1347      C1348   1.402       .  A
C1347      F1352   1.358       .  S
C1348      C1349   1.408       .  A
C1348      H1353   1.083       .  S
C1349      C1350   1.414       .  A
C1350      F1354   1.357       .  S
C1351      C1356   1.406       .  A
C1351      C1360   1.399       .  A
C1356      C1357   1.401       .  A
C1356      F1361   1.358       .  S
C1357      C1358   1.407       .  A
C1357      H1362   1.083       .  S
C1358      C1359   1.415       .  A
C1359      C1360   1.399       .  A
C1359      F1363   1.358       .  S
C1360      H1364   1.084       .  S
C1365      C1366   1.405       .  A
C1365      C1370   1.403       .  A
C1365      H1375   1.083       .  S
C1366      C1371   1.491       .  S
C1366      C1367   1.408       .  A
C1367      C1368   1.400       .  A
C1367      F1372   1.357       .  S
C1368      C1369   1.406       .  A
C1368      H1373   1.084       .  S
C1369      C1370   1.413       .  A
C1370      F1374   1.358       .  S
C1371      C1376   1.405       .  A
C1371      C1380   1.407       .  A
C1376      C1377   1.398       .  A
C1376      F1381   1.358       .  S
C1377      C1378   1.409       .  A
C1377      H1382   1.083       .  S
C1378      C1379   1.412       .  A
C1379      C1380   1.406       .  A
C1379      F1383   1.357       .  S
C1380      H1384   1.083       .  S
C1385      C1386   1.410       .  A
C1385      C1390   1.399       .  A
C1385      H1395   1.083       .  S
C1386      C1391   1.479       .  S
C1386      C1387   1.402       .  A
C1387      C1388   1.388       .  A
C1387      F1392   1.358       .  S
C1388      C1389   1.409       .  A
C1388      H1393   1.084       .  S
C1389      C1390   1.403       .  A
C1390      F1394   1.357       .  S
C1391      C1396   1.408       .  A
C1391      C1400   1.405       .  A
C1396      C1397   1.396       .  A
C1396      F1401   1.358       .  S
C1397      C1398   1.404       .  A
C1397      H1402   1.084       .  S
C1398      C1399   1.404       .  A
C1399      C1400   1.392       .  A
C1399      F1403   1.358       .  S
C1400      H1404   1.084       .  S
C1405      C1406   1.404       .  A
C1405      C1410   1.402       .  A
C1405      H1415   1.084       .  S
C1406      C1411   1.492       .  S
C1406      C1407   1.408       .  A
C1407      C1408   1.403       .  A
C1407      F1412   1.357       .  S
C1408      C1409   1.408       .  A
C1408      H1413   1.084       .  S
C1409      C1410   1.414       .  A
C1410      F1414   1.357       .  S
C1411      C1416   1.409       .  A
C1411      C1420   1.403       .  A
C1416      C1417   1.405       .  A
C1416      F1421   1.357       .  S
C1417      C1418   1.408       .  A
C1417      H1422   1.084       .  S
C1418      C1419   1.413       .  A
C1419      C1420   1.400       .  A
C1419      F1423   1.357       .  S
C1420      H1424   1.084       .  S
C1425      C1426   1.405       .  A
C1425      C1430   1.401       .  A
C1425      H1435   1.084       .  S
C1426      C1431   1.484       .  S
C1426      C1427   1.404       .  A
C1427      C1428   1.397       .  A
C1427      F1432   1.358       .  S
C1428      C1429   1.409       .  A
C1428      H1433   1.084       .  S
C1429      C1430   1.409       .  A
C1430      F1434   1.357       .  S
C1431      C1436   1.406       .  A
C1431      C1440   1.403       .  A
C1436      C1437   1.399       .  A
C1436      F1441   1.358       .  S
C1437      C1438   1.408       .  A
C1437      H1442   1.083       .  S
C1438      C1439   1.411       .  A
C1439      C1440   1.400       .  A
C1439      F1443   1.357       .  S
C1440      H1444   1.084       .  S
C1445      C1446   1.404       .  A
C1445      C1450   1.395       .  A
C1445      H1455   1.083       .  S
C1446      C1451   1.489       .  S
C1446      C1447   1.410       .  A
C1447      C1448   1.401       .  A
C1447      F1452   1.357       .  S
C1448      C1449   1.405       .  A
C1448      H1453   1.083       .  S
C1449      C1450   1.410       .  A
C1450      F1454   1.358       .  S
C1451      C1456   1.410       .  A
C1451      C1460   1.403       .  A
C1456      C1457   1.400       .  A
C1456      F1461   1.357       .  S
C1457      C1458   1.406       .  A
C1457      H1462   1.083       .  S
C1458      C1459   1.412       .  A
C1459      C1460   1.396       .  A
C1459      F1463   1.358       .  S
C1460      H1464   1.083       .  S
C1465      C1466   1.404       .  A
C1465      C1470   1.397       .  A
C1465      H1475   1.083       .  S
C1466      C1471   1.488       .  S
C1466      C1467   1.408       .  A
C1467      C1468   1.400       .  A
C1467      F1472   1.358       .  S
C1468      C1469   1.406       .  A
C1468      H1473   1.083       .  S
C1469      C1470   1.411       .  A
C1470      F1474   1.358       .  S
C1471      C1476   1.409       .  A
C1471      C1480   1.403       .  A
C1476      C1477   1.402       .  A
C1476      F1481   1.358       .  S
C1477      C1478   1.407       .  A
C1477      H1482   1.083       .  S
C1478      C1479   1.410       .  A
C1479      C1480   1.394       .  A
C1479      F1483   1.358       .  S
C1480      H1484   1.083       .  S
C1485      C1486   1.405       .  A
C1485      C1490   1.403       .  A
C1485      H1495   1.084       .  S
C1486      C1491   1.480       .  S
C1486      C1487   1.400       .  A
C1487      C1488   1.397       .  A
C1487      F1492   1.357       .  S
C1488      C1489   1.411       .  A
C1488      H1493   1.084       .  S
C1489      C1490   1.411       .  A
C1490      F1494   1.357       .  S
C1491      C1496   1.402       .  A
C1491      C1500   1.404       .  A
C1496      C1497   1.400       .  A
C1496      F1501   1.357       .  S
C1497      C1498   1.411       .  A
C1497      H1502   1.083       .  S
C1498      C1499   1.410       .  A
C1499      C1500   1.400       .  A
C1499      F1503   1.357       .  S
C1500      H1504   1.084       .  S
C1505      C1506   1.408       .  A
C1505      C1510   1.408       .  A
C1505      H1515   1.083       .  S
C1506      C1511   1.499       .  S
C1506      C1507   1.407       .  A
C1507      C1508   1.401       .  A
C1507      F1512   1.358       .  S
C1508      C1509   1.411       .  A
C1508      H1513   1.083       .  S
C1509      C1510   1.412       .  A
C1510      F1514   1.357       .  S
C1511      C1516   1.409       .  A
C1511      C1520   1.405       .  A
C1516      C1517   1.407       .  A
C1516      F1521   1.357       .  S
C1517      C1518   1.410       .  A
C1517      H1522   1.083       .  S
C1518      C1519   1.414       .  A
C1519      C1520   1.402       .  A
C1519      F1523   1.357       .  S
C1520      H1524   1.083       .  S
C1525      C1526   1.411       .  A
C1525      C1530   1.401       .  A
C1525      H1535   1.082       .  S
C1526      C1531   1.490       .  S
C1526      C1527   1.406       .  A
C1527      C1528   1.390       .  A
C1527      F1532   1.357       .  S
C1528      C1529   1.409       .  A
C1528      H1533   1.083       .  S
C1529      C1530   1.405       .  A
C1530      F1534   1.357       .  S
C1531      C1536   1.411       .  A
C1531      C1540   1.407       .  A
C1536      C1537   1.397       .  A
C1536      F1541   1.357       .  S
C1537      C1538   1.401       .  A
C1537      H1542   1.083       .  S
C1538      C1539   1.404       .  A
C1539      C1540   1.395       .  A
C1539      F1543   1.357       .  S
C1540      H1544   1.081       .  S
C1545      C1546   1.407       .  A
C1545      C1550   1.399       .  A
C1545      H1555   1.083       .  S
C1546      C1551   1.482       .  S
C1546      C1547   1.405       .  A
C1547      C1548   1.396       .  A
C1547      F1552   1.358       .  S
C1548      C1549   1.405       .  A
C1548      H1553   1.084       .  S
C1549      C1550   1.404       .  A
C1550      F1554   1.357       .  S
C1551      C1556   1.405       .  A
C1551      C1560   1.406       .  A
C1556      C1557   1.395       .  A
C1556      F1561   1.358       .  S
C1557      C1558   1.405       .  A
C1557      H1562   1.083       .  S
C1558      C1559   1.407       .  A
C1559      C1560   1.399       .  A
C1559      F1563   1.358       .  S
C1560      H1564   1.083       .  S
C1565      C1566   1.405       .  A
C1565      C1570   1.402       .  A
C1565      H1575   1.084       .  S
C1566      C1571   1.495       .  S
C1566      C1567   1.409       .  A
C1567      C1568   1.403       .  A
C1567      F1572   1.357       .  S
C1568      C1569   1.409       .  A
C1568      H1573   1.083       .  S
C1569      C1570   1.412       .  A
C1570      F1574   1.357       .  S
C1571      C1576   1.407       .  A
C1571      C1580   1.407       .  A
C1576      C1577   1.401       .  A
C1576      F1581   1.357       .  S
C1577      C1578   1.410       .  A
C1577      H1582   1.083       .  S
C1578      C1579   1.410       .  A
C1579      C1580   1.404       .  A
C1579      F1583   1.357       .  S
C1580      H1584   1.084       .  S
C1585      C1586   1.406       .  A
C1585      C1590   1.403       .  A
C1585      H1595   1.084       .  S
C1586      C1591   1.500       .  S
C1586      C1587   1.410       .  A
C1587      C1588   1.406       .  A
C1587      F1592   1.357       .  S
C1588      C1589   1.410       .  A
C1588      H1593   1.084       .  S
C1589      C1590   1.413       .  A
C1590      F1594   1.357       .  S
C1591      C1596   1.410       .  A
C1591      C1600   1.407       .  A
C1596      C1597   1.403       .  A
C1596      F1601   1.357       .  S
C1597      C1598   1.408       .  A
C1597      H1602   1.084       .  S
C1598      C1599   1.413       .  A
C1599      C1600   1.407       .  A
C1599      F1603   1.357   1_545  S
C1600      H1604   1.084       .  S
C1605      C1606   1.409       .  A
C1605      C1610   1.401       .  A
C1605      H1615   1.083       .  S
C1606      C1611   1.480   1_565  S
C1606      C1607   1.404       .  A
C1607      C1608   1.387       .  A
C1607      F1612   1.358       .  S
C1608      C1609   1.407       .  A
C1608      H1613   1.084       .  S
C1609      C1610   1.404       .  A
C1610      F1614   1.357       .  S
C1611      C1616   1.409       .  A
C1611      C1620   1.405       .  A
C1616      C1617   1.396       .  A
C1616      F1621   1.358       .  S
C1617      C1618   1.402       .  A
C1617      H1622   1.083       .  S
C1618      C1619   1.402       .  A
C1619      C1620   1.391       .  A
C1619      F1623   1.358       .  S
C1620      H1624   1.082       .  S
C1625      C1626   1.402       .  A
C1625      C1630   1.397       .  A
C1625      H1635   1.083       .  S
C1626      C1631   1.480       .  S
C1626      C1627   1.406       .  A
C1627      C1628   1.398       .  A
C1627      F1632   1.357       .  S
C1628      C1629   1.405       .  A
C1628      H1633   1.083       .  S
C1629      C1630   1.411       .  A
C1630      F1634   1.358       .  S
C1631      C1636   1.406       .  A
C1631      C1640   1.401       .  A
C1636      C1637   1.398       .  A
C1636      F1641   1.358       .  S
C1637      C1638   1.407       .  A
C1637      H1642   1.083       .  S
C1638      C1639   1.412       .  A
C1639      C1640   1.396       .  A
C1639      F1643   1.357       .  S
C1640      H1644   1.084       .  S
C1645      C1646   1.408       .  A
C1645      C1650   1.404       .  A
C1645      H1655   1.083       .  S
C1646      C1651   1.490       .  S
C1646      C1647   1.403       .  A
C1647      C1648   1.398       .  A
C1647      F1652   1.358       .  S
C1648      C1649   1.412       .  A
C1648      H1653   1.083       .  S
C1649      C1650   1.409       .  A
C1650      F1654   1.357       .  S
C1651      C1656   1.403       .  A
C1651      C1660   1.409       .  A
C1656      C1657   1.397       .  A
C1656      F1661   1.358       .  S
C1657      C1658   1.411       .  A
C1657      H1662   1.083       .  S
C1658      C1659   1.409       .  A
C1659      C1660   1.405       .  A
C1659      F1663   1.357       .  S
C1660      H1664   1.083       .  S
C1665      C1666   1.406       .  A
C1665      C1670   1.402       .  A
C1665      H1675   1.084       .  S
C1666      C1671   1.490       .  S
C1666      C1667   1.408       .  A
C1667      C1668   1.395       .  A
C1667      F1672   1.358       .  S
C1668      C1669   1.406       .  A
C1668      H1673   1.084       .  S
C1669      C1670   1.411       .  A
C1670      F1674   1.357       .  S
C1671      C1676   1.411       .  A
C1671      C1680   1.401       .  A
C1676      C1677   1.404       .  A
C1676      F1681   1.357       .  S
C1677      C1678   1.407       .  A
C1677      H1682   1.084       .  S
C1678      C1679   1.414       .  A
C1679      C1680   1.394       .  A
C1679      F1683   1.358       .  S
C1680      H1684   1.084       .  S
C1685      C1686   1.411       .  A
C1685      C1690   1.402       .  A
C1685      H1695   1.082       .  S
C1686      C1691   1.486       .  S
C1686      C1687   1.405       .  A
C1687      C1688   1.388       .  A
C1687      F1692   1.358       .  S
C1688      C1689   1.408       .  A
C1688      H1693   1.084       .  S
C1689      C1690   1.404       .  A
C1690      F1694   1.357       .  S
C1691      C1696   1.409       .  A
C1691      C1700   1.407       .  A
C1696      C1697   1.396       .  A
C1696      F1701   1.357       .  S
C1697      C1698   1.402       .  A
C1697      H1702   1.083       .  S
C1698      C1699   1.403       .  A
C1699      C1700   1.394       .  A
C1699      F1703   1.357       .  S
C1700      H1704   1.082       .  S
C1705      C1706   1.404       .  A
C1705      C1710   1.396       .  A
C1705      H1715   1.083       .  S
C1706      C1711   1.486       .  S
C1706      C1707   1.409       .  A
C1707      C1708   1.400       .  A
C1707      F1712   1.357       .  S
C1708      C1709   1.404       .  A
C1708      H1713   1.083       .  S
C1709      C1710   1.407       .  A
C1710      F1714   1.358       .  S
C1711      C1716   1.408       .  A
C1711      C1720   1.406       .  A
C1716      C1717   1.397       .  A
C1716      F1721   1.358       .  S
C1717      C1718   1.406       .  A
C1717      H1722   1.082       .  S
C1718      C1719   1.407       .  A
C1719      C1720   1.398       .  A
C1719      F1723   1.357       .  S
C1720      H1724   1.082       .  S
C1725      C1726   1.404       .  A
C1725      C1730   1.389       .  A
C1725      H1735   1.083       .  S
C1726      C1731   1.478       .  S
C1726      C1727   1.410       .  A
C1727      C1728   1.397       .  A
C1727      F1732   1.357       .  S
C1728      C1729   1.400       .  A
C1728      H1733   1.083       .  S
C1729      C1730   1.401       .  A
C1730      F1734   1.357       .  S
C1731      C1736   1.404       .  A
C1731      C1740   1.408       .  A
C1736      C1737   1.386       .  A
C1736      F1741   1.358       .  S
C1737      C1738   1.405       .  A
C1737      H1742   1.084       .  S
C1738      C1739   1.406       .  A
C1739      C1740   1.399       .  A
C1739      F1743   1.357       .  S
C1740      H1744   1.083       .  S
C1745      C1746   1.407       .  A
C1745      C1750   1.403       .  A
C1745      H1755   1.083       .  S
C1746      C1751   1.506       .  S
C1746      C1747   1.414       .  A
C1747      C1748   1.406       .  A
C1747      F1752   1.357       .  S
C1748      C1749   1.407       .  A
C1748      H1753   1.084       .  S
C1749      C1750   1.413       .  A
C1750      F1754   1.357       .  S
C1751      C1756   1.413       .  A
C1751      C1760   1.412       .  A
C1756      C1757   1.402       .  A
C1756      F1761   1.357       .  S
C1757      C1758   1.403       .  A
C1757      H1762   1.083       .  S
C1758      C1759   1.405       .  A
C1759      C1760   1.406       .  A
C1759      F1763   1.358       .  S
C1760      H1764   1.082       .  S
C1765      C1766   1.402       .  A
C1765      C1770   1.398       .  A
C1765      H1775   1.083       .  S
C1766      C1771   1.485       .  S
C1766      C1767   1.407       .  A
C1767      C1768   1.400       .  A
C1767      F1772   1.357       .  S
C1768      C1769   1.407       .  A
C1768      H1773   1.083       .  S
C1769      C1770   1.413       .  A
C1770      F1774   1.358       .  S
C1771      C1776   1.408       .  A
C1771      C1780   1.402       .  A
C1776      C1777   1.403       .  A
C1776      F1781   1.357       .  S
C1777      C1778   1.407       .  A
C1777      H1782   1.083       .  S
C1778      C1779   1.411       .  A
C1779      C1780   1.394       .  A
C1779      F1783   1.358       .  S
C1780      H1784   1.084       .  S
C1785      C1786   1.409       .  A
C1785      C1790   1.402       .  A
C1785      H1795   1.082       .  S
C1786      C1791   1.496       .  S
C1786      C1787   1.411       .  A
C1787      C1788   1.400       .  A
C1787      F1792   1.357       .  S
C1788      C1789   1.404       .  A
C1788      H1793   1.083       .  S
C1789      C1790   1.406       .  A
C1790      F1794   1.358   1_565  S
C1791      C1796   1.411       .  A
C1791      C1800   1.405       .  A
C1796      C1797   1.403       .  A
C1796      F1801   1.357       .  S
C1797      C1798   1.406       .  A
C1797      H1802   1.083       .  S
C1798      C1799   1.410       .  A
C1799      C1800   1.398       .  A
C1799      F1803   1.358       .  S
C1800      H1804   1.083       .  S
C1805      C1806   1.406       .  A
C1805      C1810   1.399       .  A
C1805      H1815   1.083       .  S
C1806      C1811   1.488       .  S
C1806      C1807   1.409       .  A
C1807      C1808   1.399       .  A
C1807      F1812   1.357       .  S
C1808      C1809   1.403       .  A
C1808      H1813   1.084       .  S
C1809      C1810   1.406       .  A
C1810      F1814   1.358       .  S
C1811      C1816   1.408       .  A
C1811      C1820   1.405       .  A
C1816      C1817   1.399       .  A
C1816      F1821   1.357       .  S
C1817      C1818   1.406       .  A
C1817      H1822   1.083       .  S
C1818      C1819   1.410       .  A
C1819      C1820   1.398       .  A
C1819      F1823   1.357       .  S
C1820      H1824   1.083       .  S
C1825      C1826   1.406       .  A
C1825      C1830   1.401       .  A
C1825      H1835   1.082       .  S
C1826      C1831   1.480       .  S
C1826      C1827   1.405       .  A
C1827      C1828   1.390       .  A
C1827      F1832   1.358       .  S
C1828      C1829   1.405       .  A
C1828      H1833   1.083       .  S
C1829      C1830   1.410       .  A
C1830      F1834   1.358       .  S
C1831      C1836   1.405       .  A
C1831      C1840   1.404       .  A
C1836      C1837   1.397       .  A
C1836      F1841   1.358       .  S
C1837      C1838   1.407       .  A
C1837      H1842   1.083       .  S
C1838      C1839   1.409       .  A
C1839      C1840   1.395       .  A
C1839      F1843   1.357       .  S
C1840      H1844   1.083       .  S
C1845      C1846   1.401       .  A
C1845      C1850   1.400       .  A
C1845      H1855   1.084       .  S
C1846      C1851   1.479       .  S
C1846      C1847   1.405       .  A
C1847      C1848   1.398       .  A
C1847      F1852   1.357       .  S
C1848      C1849   1.405       .  A
C1848      H1853   1.084       .  S
C1849      C1850   1.412       .  A
C1850      F1854   1.358       .  S
C1851      C1856   1.405       .  A
C1851      C1860   1.401       .  A
C1856      C1857   1.398       .  A
C1856      F1861   1.358       .  S
C1857      C1858   1.406       .  A
C1857      H1862   1.083       .  S
C1858      C1859   1.410       .  A
C1859      C1860   1.400       .  A
C1859      F1863   1.357       .  S
C1860      H1864   1.084       .  S
C1865      C1866   1.411       .  A
C1865      C1870   1.406       .  A
C1865      H1875   1.081       .  S
C1866      C1871   1.508       .  S
C1866      C1867   1.414       .  A
C1867      C1868   1.403       .  A
C1867      F1872   1.357       .  S
C1868      C1869   1.404       .  A
C1868      H1873   1.083       .  S
C1869      C1870   1.408       .  A
C1870      F1874   1.357       .  S
C1871      C1876   1.415       .  A
C1871      C1880   1.407       .  A
C1876      C1877   1.409       .  A
C1876      F1881   1.357       .  S
C1877      C1878   1.407       .  A
C1877      H1882   1.083       .  S
C1878      C1879   1.410       .  A
C1879      C1880   1.400       .  A
C1879      F1883   1.358       .  S
C1880      H1884   1.082       .  S
C1885      C1886   1.405       .  A
C1885      C1890   1.400       .  A
C1885      H1895   1.084       .  S
C1886      C1891   1.472       .  S
C1886      C1887   1.401       .  A
C1887      C1888   1.387       .  A
C1887      F1892   1.358       .  S
C1888      C1889   1.407       .  A
C1888      H1893   1.084       .  S
C1889      C1890   1.408       .  A
C1890      F1894   1.357       .  S
C1891      C1896   1.404       .  A
C1891      C1900   1.402       .  A
C1896      C1897   1.390       .  A
C1896      F1901   1.358       .  S
C1897      C1898   1.405       .  A
C1897      H1902   1.084       .  S
C1898      C1899   1.410       .  A
C1899      C1900   1.397       .  A
C1899      F1903   1.358       .  S
C1900      H1904   1.083       .  S
C1905      C1906   1.404       .  A
C1905      C1910   1.402       .  A
C1905      H1915   1.084       .  S
C1906      C1911   1.491       .  S
C1906      C1907   1.407       .  A
C1907      C1908   1.404       .  A
C1907      F1912   1.357       .  S
C1908      C1909   1.410       .  A
C1908      H1913   1.083       .  S
C1909      C1910   1.412       .  A
C1910      F1914   1.357       .  S
C1911      C1916   1.406       .  A
C1911      C1920   1.405       .  A
C1916      C1917   1.402       .  A
C1916      F1921   1.357       .  S
C1917      C1918   1.409       .  A
C1917      H1922   1.083       .  S
C1918      C1919   1.414       .  A
C1919      C1920   1.403       .  A
C1919      F1923   1.357       .  S
C1920      H1924   1.084       .  S
C1925      C1926   1.410       .  A
C1925      C1930   1.407       .  A
C1925      H1935   1.083       .  S
C1926      C1931   1.502       .  S
C1926      C1927   1.410       .  A
C1927      C1928   1.401       .  A
C1927      F1932   1.357       .  S
C1928      C1929   1.408       .  A
C1928      H1933   1.084       .  S
C1929      C1930   1.409       .  A
C1930      F1934   1.357       .  S
C1931      C1936   1.411       .  A
C1931      C1940   1.407       .  A
C1936      C1937   1.405       .  A
C1936      F1941   1.357       .  S
C1937      C1938   1.407       .  A
C1937      H1942   1.084       .  S
C1938      C1939   1.412       .  A
C1939      C1940   1.403       .  A
C1939      F1943   1.358       .  S
C1940      H1944   1.083       .  S
C1945      C1946   1.403       .  A
C1945      C1950   1.389       .  A
C1945      H1955   1.083       .  S
C1946      C1951   1.474       .  S
C1946      C1947   1.408       .  A
C1947      C1948   1.393       .  A
C1947      F1952   1.358       .  S
C1948      C1949   1.400       .  A
C1948      H1953   1.084       .  S
C1949      C1950   1.403       .  A
C1950      F1954   1.358       .  S
C1951      C1956   1.403       .  A
C1951      C1960   1.407       .  A
C1956      C1957   1.386       .  A
C1956      F1961   1.358       .  S
C1957      C1958   1.407       .  A
C1957      H1962   1.084       .  S
C1958      C1959   1.404       .  A
C1959      C1960   1.396       .  A
C1959      F1963   1.357       .  S
C1960      H1964   1.083       .  S
C1965      C1966   1.405       .  A
C1965      C1970   1.397       .  A
C1965      H1975   1.083       .  S
C1966      C1971   1.498       .  S
C1966      C1967   1.411       .  A
C1967      C1968   1.407       .  A
C1967      F1972   1.357       .  S
C1968      C1969   1.408       .  A
C1968      H1973   1.083       .  S
C1969      C1970   1.412       .  A
C1970      F1974   1.358       .  S
C1971      C1976   1.411       .  A
C1971      C1980   1.404       .  A
C1976      C1977   1.407       .  A
C1976      F1981   1.357       .  S
C1977      C1978   1.409       .  A
C1977      H1982   1.083       .  S
C1978      C1979   1.413       .  A
C1979      C1980   1.397       .  A
C1979      F1983   1.358       .  S
C1980      H1984   1.084       .  S
C1985      C1986   1.399       .  A
C1985      C1990   1.400       .  A
C1985      H1995   1.084       .  S
C1986      C1991   1.476       .  S
C1986      C1987   1.404       .  A
C1987      C1988   1.397       .  A
C1987      F1992   1.358       .  S
C1988      C1989   1.406       .  A
C1988      H1993   1.083       .  S
C1989      C1990   1.415       .  A
C1990      F1994   1.358       .  S
C1991      C1996   1.405       .  A
C1991      C2000   1.398       .  A
C1996      C1997   1.402       .  A
C1996      F2001   1.358       .  S
C1997      C1998   1.409       .  A
C1997      H2002   1.083       .  S
C1998      C1999   1.414       .  A
C1999      C2000   1.395       .  A
C1999      F2003   1.357       .  S
C2000      H2004   1.084       .  S
C2005      C2006   1.407       .  A
C2005      C2010   1.406       .  A
C2005      H2015   1.083       .  S
C2006      C2011   1.498   1_655  S
C2006      C2007   1.408   1_655  A
C2007      C2008   1.403   1_455  A
C2007      F2012   1.357       .  S
C2008      C2009   1.410       .  A
C2008      H2013   1.083   1_655  S
C2009      C2010   1.413       .  A
C2010      F2014   1.357       .  S
C2011      C2016   1.409       .  A
C2011      C2020   1.405       .  A
C2016      C2017   1.406       .  A
C2016      F2021   1.357   1_455  S
C2017      C2018   1.410       .  A
C2017      H2022   1.083       .  S
C2018      C2019   1.414       .  A
C2019      C2020   1.402       .  A
C2019      F2023   1.357       .  S
C2020      H2024   1.083       .  S
C2025      C2026   1.410       .  A
C2025      C2030   1.401       .  A
C2025      H2035   1.082       .  S
C2026      C2031   1.482       .  S
C2026      C2027   1.403   1_655  A
C2027      C2028   1.388       .  A
C2027      F2032   1.358       .  S
C2028      C2029   1.409       .  A
C2028      H2033   1.083       .  S
C2029      C2030   1.404   1_455  A
C2030      F2034   1.357       .  S
C2031      C2036   1.409       .  A
C2031      C2040   1.406       .  A
C2036      C2037   1.394       .  A
C2036      F2041   1.357       .  S
C2037      C2038   1.401       .  A
C2037      H2042   1.085       .  S
C2038      C2039   1.403       .  A
C2039      C2040   1.395       .  A
C2039      F2043   1.358       .  S
C2040      H2044   1.084       .  S
C2045      C2046   1.403       .  A
C2045      C2050   1.396       .  A
C2045      H2055   1.083       .  S
C2046      C2051   1.486       .  S
C2046      C2047   1.408       .  A
C2047      C2048   1.401       .  A
C2047      F2052   1.357       .  S
C2048      C2049   1.406       .  A
C2048      H2053   1.083       .  S
C2049      C2050   1.412       .  A
C2050      F2054   1.358       .  S
C2051      C2056   1.407       .  A
C2051      C2060   1.404       .  A
C2056      C2057   1.400       .  A
C2056      F2061   1.357       .  S
C2057      C2058   1.407       .  A
C2057      H2062   1.083       .  S
C2058      C2059   1.412       .  A
C2059      C2060   1.397       .  A
C2059      F2063   1.358       .  S
C2060      H2064   1.083       .  S
C2065      C2066   1.407       .  A
C2065      C2070   1.401       .  A
C2065      H2075   1.082       .  S
C2066      C2071   1.491       .  S
C2066      C2067   1.408       .  A
C2067      C2068   1.397       .  A
C2067      F2072   1.358       .  S
C2068      C2069   1.407       .  A
C2068      H2073   1.082       .  S
C2069      C2070   1.408       .  A
C2070      F2074   1.357       .  S
C2071      C2076   1.408       .  A
C2071      C2080   1.407       .  A
C2076      C2077   1.396       .  A
C2076      F2081   1.357       .  S
C2077      C2078   1.406       .  A
C2077      H2082   1.083       .  S
C2078      C2079   1.410       .  A
C2079      C2080   1.401       .  A
C2079      F2083   1.358       .  S
C2080      H2084   1.082       .  S
C2085      C2086   1.401       .  A
C2085      C2090   1.390       .  A
C2085      H2095   1.082       .  S
C2086      C2091   1.483       .  S
C2086      C2087   1.411       .  A
C2087      C2088   1.400       .  A
C2087      F2092   1.357       .  S
C2088      C2089   1.401       .  A
C2088      H2093   1.083       .  S
C2089      C2090   1.410       .  A
C2090      F2094   1.359       .  S
C2091      C2096   1.408       .  A
C2091      C2100   1.407       .  A
C2096      C2097   1.396       .  A
C2096      F2101   1.358       .  S
C2097      C2098   1.402       .  A
C2097      H2102   1.083       .  S
C2098      C2099   1.402       .  A
C2099      C2100   1.396       .  A
C2099      F2103   1.357       .  S
C2100      H2104   1.083       .  S
C2105      C2106   1.405       .  A
C2105      C2110   1.402       .  A
C2105      H2115   1.084       .  S
C2106      C2111   1.495       .  S
C2106      C2107   1.409       .  A
C2107      C2108   1.402       .  A
C2107      F2112   1.357       .  S
C2108      C2109   1.407       .  A
C2108      H2113   1.084       .  S
C2109      C2110   1.414       .  A
C2110      F2114   1.357       .  S
C2111      C2116   1.410       .  A
C2111      C2120   1.404       .  A
C2116      C2117   1.404       .  A
C2116      F2121   1.357       .  S
C2117      C2118   1.408       .  A
C2117      H2122   1.083       .  S
C2118      C2119   1.413       .  A
C2119      C2120   1.400       .  A
C2119      F2123   1.357       .  S
C2120      H2124   1.084       .  S
C2125      C2126   1.408       .  A
C2125      C2130   1.402       .  A
C2125      H2135   1.083       .  S
C2126      C2131   1.497       .  S
C2126      C2127   1.410       .  A
C2127      C2128   1.404       .  A
C2127      F2132   1.357       .  S
C2128      C2129   1.406       .  A
C2128      H2133   1.083       .  S
C2129      C2130   1.407       .  A
C2130      F2134   1.358       .  S
C2131      C2136   1.407       .  A
C2131      C2140   1.410       .  A
C2136      C2137   1.399       .  A
C2136      F2141   1.358       .  S
C2137      C2138   1.407       .  A
C2137      H2142   1.083       .  S
C2138      C2139   1.408       .  A
C2139      C2140   1.408       .  A
C2139      F2143   1.357       .  S
C2140      H2144   1.082       .  S
C2145      C2146   1.403       .  A
C2145      C2150   1.396       .  A
C2145      H2155   1.083       .  S
C2146      C2151   1.488       .  S
C2146      C2147   1.410       .  A
C2147      C2148   1.400       .  A
C2147      F2152   1.357       .  S
C2148      C2149   1.405       .  A
C2148      H2153   1.083       .  S
C2149      C2150   1.412       .  A
C2150      F2154   1.358       .  S
C2151      C2156   1.409       .  A
C2151      C2160   1.406       .  A
C2156      C2157   1.398       .  A
C2156      F2161   1.357       .  S
C2157      C2158   1.403       .  A
C2157      H2162   1.083       .  S
C2158      C2159   1.406       .  A
C2159      C2160   1.398       .  A
C2159      F2163   1.358       .  S
C2160      H2164   1.083       .  S
C2165      C2166   1.405       .  A
C2165      C2170   1.396       .  A
C2165      H2175   1.083       .  S
C2166      C2171   1.491       .  S
C2166      C2167   1.410       .  A
C2167      C2168   1.404       .  A
C2167      F2172   1.357       .  S
C2168      C2169   1.406       .  A
C2168      H2173   1.083       .  S
C2169      C2170   1.408       .  A
C2170      F2174   1.358       .  S
C2171      C2176   1.409       .  A
C2171      C2180   1.407       .  A
C2176      C2177   1.401       .  A
C2176      F2181   1.357       .  S
C2177      C2178   1.406       .  A
C2177      H2182   1.084       .  S
C2178      C2179   1.407       .  A
C2179      C2180   1.400       .  A
C2179      F2183   1.357       .  S
C2180      H2184   1.084       .  S
C2185      C2186   1.401       .  A
C2185      C2190   1.400       .  A
C2185      H2195   1.084       .  S
C2186      C2191   1.489       .  S
C2186      C2187   1.408       .  A
C2187      C2188   1.406       .  A
C2187      F2192   1.357       .  S
C2188      C2189   1.408       .  A
C2188      H2193   1.083       .  S
C2189      C2190   1.416       .  A
C2190      F2194   1.358       .  S
C2191      C2196   1.407       .  A
C2191      C2200   1.402       .  A
C2196      C2197   1.403       .  A
C2196      F2201   1.358       .  S
C2197      C2198   1.408       .  A
C2197      H2202   1.083       .  S
C2198      C2199   1.416       .  A
C2199      C2200   1.404       .  A
C2199      F2203   1.357       .  S
C2200      H2204   1.083       .  S
C2205      C2206   1.411   1_455  A
C2205      C2210   1.406       .  A
C2205      H2215   1.082       .  S
C2206      C2211   1.503       .  S
C2206      C2207   1.412       .  A
C2207      C2208   1.401   1_655  A
C2207      F2212   1.357       .  S
C2208      C2209   1.402       .  A
C2208      H2213   1.083       .  S
C2209      C2210   1.407       .  A
C2210      F2214   1.358       .  S
C2211      C2216   1.411       .  A
C2211      C2220   1.410       .  A
C2216      C2217   1.403       .  A
C2216      F2221   1.357   1_655  S
C2217      C2218   1.409       .  A
C2217      H2222   1.083       .  S
C2218      C2219   1.407       .  A
C2219      C2220   1.403       .  A
C2219      F2223   1.357       .  S
C2220      H2224   1.083       .  S
C2225      C2226   1.405       .  A
C2225      C2230   1.399       .  A
C2225      H2235   1.083       .  S
C2226      C2231   1.486       .  S
C2226      C2227   1.407       .  A
C2227      C2228   1.395       .  A
C2227      F2232   1.357       .  S
C2228      C2229   1.405       .  A
C2228      H2233   1.083       .  S
C2229      C2230   1.410       .  A
C2230      F2234   1.358       .  S
C2231      C2236   1.408       .  A
C2231      C2240   1.402       .  A
C2236      C2237   1.401       .  A
C2236      F2241   1.358       .  S
C2237      C2238   1.407       .  A
C2237      H2242   1.083       .  S
C2238      C2239   1.411       .  A
C2239      C2240   1.395       .  A
C2239      F2243   1.357       .  S
C2240      H2244   1.084       .  S
C2245      C2246   1.411       .  A
C2245      C2250   1.405       .  A
C2245      H2255   1.082       .  S
C2246      C2251   1.501       .  S
C2246      C2247   1.410       .  A
C2247      C2248   1.400       .  A
C2247      F2252   1.357   1_655  S
C2248      C2249   1.406       .  A
C2248      H2253   1.083       .  S
C2249      C2250   1.408       .  A
C2250      F2254   1.357       .  S
C2251      C2256   1.412       .  A
C2251      C2260   1.410   1_655  A
C2256      C2257   1.403   1_655  A
C2256      F2261   1.357       .  S
C2257      C2258   1.405       .  A
C2257      H2262   1.083   1_565  S
C2258      C2259   1.404       .  A
C2259      C2260   1.402       .  A
C2259      F2263   1.357       .  S
C2260      H2264   1.082       .  S
C2265      C2266   1.404       .  A
C2265      C2270   1.397       .  A
C2265      H2275   1.083       .  S
C2266      C2271   1.483   1_565  S
C2266      C2267   1.409   1_556  A
C2267      C2268   1.396       .  A
C2267      F2272   1.358   1_655  S
C2268      C2269   1.402   1_554  A
C2268      H2273   1.083       .  S
C2269      C2270   1.407       .  A
C2270      F2274   1.358       .  S
C2271      C2276   1.402   1_656  A
C2271      C2280   1.409       .  A
C2276      C2277   1.389   1_554  A
C2276      F2281   1.358   1_545  S
C2277      C2278   1.411       .  A
C2277      H2282   1.084   1_556  S
C2278      C2279   1.407   1_455  A
C2279      C2280   1.404       .  A
C2279      F2283   1.357       .  S
C2280      H2284   1.084       .  S
C2285      C2286   1.404       .  A
C2285      C2290   1.400       .  A
C2285      H2295   1.084   1_655  S
C2286      C2291   1.497       .  S
C2286      C2287   1.411       .  A
C2287      C2288   1.407       .  A
C2287      F2292   1.357       .  S
C2288      C2289   1.409       .  A
C2288      H2293   1.084       .  S
C2289      C2290   1.412       .  A
C2290      F2294   1.357   1_655  S
C2291      C2296   1.409   1_655  A
C2291      C2300   1.405       .  A
C2296      C2297   1.403       .  A
C2296      F2301   1.358       .  S
C2297      C2298   1.409       .  A
C2297      H2302   1.084       .  S
C2298      C2299   1.414       .  A
C2299      C2300   1.404   1_455  A
C2299      F2303   1.357       .  S
C2300      H2304   1.084       .  S
C2305      C2306   1.400       .  A
C2305      C2310   1.391       .  A
C2305      H2315   1.083       .  S
C2306      C2311   1.480       .  S
C2306      C2307   1.409       .  A
C2307      C2308   1.400       .  A
C2307      F2312   1.357       .  S
C2308      C2309   1.403       .  A
C2308      H2313   1.083       .  S
C2309      C2310   1.412       .  A
C2310      F2314   1.358       .  S
C2311      C2316   1.406       .  A
C2311      C2320   1.403       .  A
C2316      C2317   1.393       .  A
C2316      F2321   1.358       .  S
C2317      C2318   1.406       .  A
C2317      H2322   1.083       .  S
C2318      C2319   1.410       .  A
C2319      C2320   1.396       .  A
C2319      F2323   1.357       .  S
C2320      H2324   1.084       .  S
C2325      C2326   1.404       .  A
C2325      C2330   1.400       .  A
C2325      H2335   1.084       .  S
C2326      C2331   1.486       .  S
C2326      C2327   1.406       .  A
C2327      C2328   1.402       .  A
C2327      F2332   1.357       .  S
C2328      C2329   1.409       .  A
C2328      H2333   1.083   1_545  S
C2329      C2330   1.410       .  A
C2330      F2334   1.357       .  S
C2331      C2336   1.405       .  A
C2331      C2340   1.403       .  A
C2336      C2337   1.400       .  A
C2336      F2341   1.357       .  S
C2337      C2338   1.408       .  A
C2337      H2342   1.083       .  S
C2338      C2339   1.414       .  A
C2339      C2340   1.401       .  A
C2339      F2343   1.357       .  S
C2340      H2344   1.083       .  S
C2345      C2346   1.407       .  A
C2345      C2350   1.403       .  A
C2345      H2355   1.083       .  S
C2346      C2351   1.492       .  S
C2346      C2347   1.405       .  A
C2347      C2348   1.400       .  A
C2347      F2352   1.357       .  S
C2348      C2349   1.409       .  A
C2348      H2353   1.083       .  S
C2349      C2350   1.412       .  A
C2350      F2354   1.358       .  S
C2351      C2356   1.410       .  A
C2351      C2360   1.402       .  A
C2356      C2357   1.404       .  A
C2356      F2361   1.357       .  S
C2357      C2358   1.407       .  A
C2357      H2362   1.083       .  S
C2358      C2359   1.415       .  A
C2359      C2360   1.399       .  A
C2359      F2363   1.358       .  S
C2360      H2364   1.084       .  S
C2365      C2366   1.406       .  A
C2365      C2370   1.404       .  A
C2365      H2375   1.083       .  S
C2366      C2371   1.492       .  S
C2366      C2367   1.406       .  A
C2367      C2368   1.402       .  A
C2367      F2372   1.357       .  S
C2368      C2369   1.409       .  A
C2368      H2373   1.083       .  S
C2369      C2370   1.412       .  A
C2370      F2374   1.357       .  S
C2371      C2376   1.408       .  A
C2371      C2380   1.403       .  A
C2376      C2377   1.403       .  A
C2376      F2381   1.357       .  S
C2377      C2378   1.409       .  A
C2377      H2382   1.083       .  S
C2378      C2379   1.414       .  A
C2379      C2380   1.402       .  A
C2379      F2383   1.357       .  S
C2380      H2384   1.084       .  S
C2385      C2386   1.403       .  A
C2385      C2390   1.390       .  A
C2385      H2395   1.082       .  S
C2386      C2391   1.487       .  S
C2386      C2387   1.413   1_554  A
C2387      C2388   1.400       .  A
C2387      F2392   1.357       .  S
C2388      C2389   1.402       .  A
C2388      H2393   1.083       .  S
C2389      C2390   1.409   1_556  A
C2390      F2394   1.359       .  S
C2391      C2396   1.411   1_554  A
C2391      C2400   1.407       .  A
C2396      C2397   1.396       .  A
C2396      F2401   1.357       .  S
C2397      C2398   1.401   1_556  A
C2397      H2402   1.084       .  S
C2398      C2399   1.403       .  A
C2399      C2400   1.394       .  A
C2399      F2403   1.358       .  S
C2400      H2404   1.082       .  S
C2405      C2406   1.400       .  A
C2405      C2410   1.391       .  A
C2405      H2415   1.083       .  S
C2406      C2411   1.474       .  S
C2406      C2407   1.405       .  A
C2407      C2408   1.397       .  A
C2407      F2412   1.357       .  S
C2408      C2409   1.406       .  A
C2408      H2413   1.083       .  S
C2409      C2410   1.411       .  A
C2410      F2414   1.358       .  S
C2411      C2416   1.404       .  A
C2411      C2420   1.403       .  A
C2416      C2417   1.391       .  A
C2416      F2421   1.358       .  S
C2417      C2418   1.405       .  A
C2417      H2422   1.084       .  S
C2418      C2419   1.408       .  A
C2419      C2420   1.396       .  A
C2419      F2423   1.357       .  S
C2420      H2424   1.083       .  S
C2425      C2426   1.408       .  A
C2425      C2430   1.403       .  A
C2425      H2435   1.082       .  S
C2426      C2431   1.490   1_655  S
C2426      C2427   1.405   1_655  A
C2427      C2428   1.399   1_455  A
C2427      F2432   1.358       .  S
C2428      C2429   1.409       .  A
C2428      H2433   1.082   1_645  S
C2429      C2430   1.407       .  A
C2430      F2434   1.357       .  S
C2431      C2436   1.404   1_455  A
C2431      C2440   1.408       .  A
C2436      C2437   1.398   1_655  A
C2436      F2441   1.358       .  S
C2437      C2438   1.410       .  A
C2437      H2442   1.082       .  S
C2438      C2439   1.410       .  A
C2439      C2440   1.405       .  A
C2439      F2443   1.357       .  S
C2440      H2444   1.082       .  S
C2445      C2446   1.404       .  A
C2445      C2450   1.395       .  A
C2445      H2455   1.083       .  S
C2446      C2451   1.479       .  S
C2446      C2447   1.407       .  A
C2447      C2448   1.394       .  A
C2447      F2452   1.357       .  S
C2448      C2449   1.403       .  A
C2448      H2453   1.084       .  S
C2449      C2450   1.408       .  A
C2450      F2454   1.358       .  S
C2451      C2456   1.408       .  A
C2451      C2460   1.405       .  A
C2456      C2457   1.394       .  A
C2456      F2461   1.358       .  S
C2457      C2458   1.401       .  A
C2457      H2462   1.083       .  S
C2458      C2459   1.405       .  A
C2459      C2460   1.396       .  A
C2459      F2463   1.358       .  S
C2460      H2464   1.082       .  S
C2465      C2466   1.409   1_455  A
C2465      C2470   1.401       .  A
C2465      H2475   1.083       .  S
C2466      C2471   1.497       .  S
C2466      C2467   1.411       .  A
C2467      C2468   1.401   1_655  A
C2467      F2472   1.357       .  S
C2468      C2469   1.403       .  A
C2468      H2473   1.084       .  S
C2469      C2470   1.406       .  A
C2470      F2474   1.358       .  S
C2471      C2476   1.410       .  A
C2471      C2480   1.409       .  A
C2476      C2477   1.399       .  A
C2476      F2481   1.357   1_655  S
C2477      C2478   1.406       .  A
C2477      H2482   1.083       .  S
C2478      C2479   1.407       .  A
C2479      C2480   1.402       .  A
C2479      F2483   1.357       .  S
C2480      H2484   1.083       .  S
C2485      C2486   1.411   1_455  A
C2485      C2490   1.399   1_455  A
C2485      H2495   1.081       .  S
C2486      C2491   1.487       .  S
C2486      C2487   1.408       .  A
C2487      C2488   1.386       .  A
C2487      F2492   1.357       .  S
C2488      C2489   1.404       .  A
C2488      H2493   1.083       .  S
C2489      C2490   1.403       .  A
C2490      F2494   1.357   1_655  S
C2491      C2496   1.412   1_655  A
C2491      C2500   1.406       .  A
C2496      C2497   1.396       .  A
C2496      F2501   1.357       .  S
C2497      C2498   1.400       .  A
C2497      H2502   1.083       .  S
C2498      C2499   1.402   1_455  A
C2499      C2500   1.391       .  A
C2499      F2503   1.357       .  S
C2500      H2504   1.080       .  S
C2505      C2506   1.404       .  A
C2505      C2510   1.398       .  A
C2505      H2515   1.083       .  S
C2506      C2511   1.492       .  S
C2506      C2507   1.408       .  A
C2507      C2508   1.405       .  A
C2507      F2512   1.357       .  S
C2508      C2509   1.409       .  A
C2508      H2513   1.083       .  S
C2509      C2510   1.412       .  A
C2510      F2514   1.357       .  S
C2511      C2516   1.406       .  A
C2511      C2520   1.408       .  A
C2516      C2517   1.397       .  A
C2516      F2521   1.358       .  S
C2517      C2518   1.408       .  A
C2517      H2522   1.083       .  S
C2518      C2519   1.410       .  A
C2519      C2520   1.406       .  A
C2519      F2523   1.357       .  S
C2520      H2524   1.083       .  S
C2525      C2526   1.403       .  A
C2525      C2530   1.401       .  A
C2525      H2535   1.084       .  S
C2526      C2531   1.490       .  S
C2526      C2527   1.407       .  A
C2527      C2528   1.404       .  A
C2527      F2532   1.357       .  S
C2528      C2529   1.407       .  A
C2528      H2533   1.083       .  S
C2529      C2530   1.414       .  A
C2530      F2534   1.358       .  S
C2531      C2536   1.407       .  A
C2531      C2540   1.403       .  A
C2536      C2537   1.402       .  A
C2536      F2541   1.357       .  S
C2537      C2538   1.408       .  A
C2537      H2542   1.084       .  S
C2538      C2539   1.415       .  A
C2539      C2540   1.402       .  A
C2539      F2543   1.358   1_565  S
C2540      H2544   1.084       .  S
C2545      C2546   1.408       .  A
C2545      C2550   1.400       .  A
C2545      H2555   1.083       .  S
C2546      C2551   1.484   1_565  S
C2546      C2547   1.407       .  A
C2547      C2548   1.390       .  A
C2547      F2552   1.358       .  S
C2548      C2549   1.405       .  A
C2548      H2553   1.084       .  S
C2549      C2550   1.406       .  A
C2550      F2554   1.357       .  S
C2551      C2556   1.411       .  A
C2551      C2560   1.405       .  A
C2556      C2557   1.399       .  A
C2556      F2561   1.357       .  S
C2557      C2558   1.401       .  A
C2557      H2562   1.083       .  S
C2558      C2559   1.402       .  A
C2559      C2560   1.392       .  A
C2559      F2563   1.357       .  S
C2560      H2564   1.083       .  S
C2565      C2566   1.402       .  A
C2565      C2570   1.393       .  A
C2565      H2575   1.084       .  S
C2566      C2571   1.483       .  S
C2566      C2567   1.407       .  A
C2567      C2568   1.401       .  A
C2567      F2572   1.357       .  S
C2568      C2569   1.408       .  A
C2568      H2573   1.083       .  S
C2569      C2570   1.410       .  A
C2570      F2574   1.358       .  S
C2571      C2576   1.407       .  A
C2571      C2580   1.405       .  A
C2576      C2577   1.397       .  A
C2576      F2581   1.357       .  S
C2577      C2578   1.407       .  A
C2577      H2582   1.084       .  S
C2578      C2579   1.408       .  A
C2579      C2580   1.397       .  A
C2579      F2583   1.357       .  S
C2580      H2584   1.084       .  S
C2585      C2586   1.405       .  A
C2585      C2590   1.403       .  A
C2585      H2595   1.083       .  S
C2586      C2591   1.484       .  S
C2586      C2587   1.402       .  A
C2587      C2588   1.399       .  A
C2587      F2592   1.358       .  S
C2588      C2589   1.412       .  A
C2588      H2593   1.083       .  S
C2589      C2590   1.411       .  A
C2590      F2594   1.357       .  S
C2591      C2596   1.407       .  A
C2591      C2600   1.400       .  A
C2596      C2597   1.402       .  A
C2596      F2601   1.357       .  S
C2597      C2598   1.407       .  A
C2597      H2602   1.083       .  S
C2598      C2599   1.416       .  A
C2599      C2600   1.399       .  A
C2599      F2603   1.358       .  S
C2600      H2604   1.084       .  S
C2605      C2606   1.407       .  A
C2605      C2610   1.406       .  A
C2605      H2615   1.082       .  S
C2606      C2611   1.496       .  S
C2606      C2607   1.406       .  A
C2607      C2608   1.403       .  A
C2607      F2612   1.357       .  S
C2608      C2609   1.410       .  A
C2608      H2613   1.082       .  S
C2609      C2610   1.413       .  A
C2610      F2614   1.357       .  S
C2611      C2616   1.407       .  A
C2611      C2620   1.406       .  A
C2616      C2617   1.404       .  A
C2616      F2621   1.357       .  S
C2617      C2618   1.410       .  A
C2617      H2622   1.082       .  S
C2618      C2619   1.412       .  A
C2619      C2620   1.405       .  A
C2619      F2623   1.357       .  S
C2620      H2624   1.082       .  S
