geometry optimzed in LAMMPS
_audit_creation_date              2020-11-30 
_audit_creation_method            'lammps2cif' 
_symmetry_space_group_name_H-M    'P1' 
_symmetry_Int_Tables_number       1 
_symmetry_cell_setting            triclinic 
loop_ 
_symmetry_equiv_pos_as_xyz 
  x,y,z 
_cell_length_a                    40.45848887106548 
_cell_length_b                    38.99033210139181 
_cell_length_c                    36.48072273880246 
_cell_angle_alpha                 89.78301994286713 
_cell_angle_beta                  89.59490168288546 
_cell_angle_gamma                 89.92379392811434 
loop_ 
_atom_site_label 
_atom_site_type_symbol 
_atom_site_fract_x 
_atom_site_fract_y 
_atom_site_fract_z 
_atom_site_charge 
O1          O  0.92512415  0.06140342  0.10428961    -0.86000
O2          O  0.88443643  0.07121296  0.16396087    -0.83040
C3          C  0.86912306  0.09668758  0.17694820     0.97460
O4          O  0.84782844  0.11284938  0.15861884    -0.83080
O5          O  0.85256052  0.14955244  0.09325617    -0.85720
C6          C  0.85605893  0.15536227  0.05936040     1.01990
O7          O  0.85733104  0.13042633  0.03807757    -0.78480
O8          O  0.91532419  0.10466531  0.06600141    -0.78670
C9          C  0.93393446  0.08976428  0.08869444     1.01940
O10         O  0.87141481  0.01051498  0.07775064    -0.85990
O11         O  0.83449873  0.02476888  0.13556487    -0.83060
C12         C  0.80524039  0.03654950  0.13421251     0.97480
O13         O  0.80027826  0.06762721  0.12591782    -0.83090
O14         O  0.80475226  0.10160887  0.06254585    -0.85690
C15         C  0.80726574  0.08113861  0.03562855     1.01960
O16         O  0.83381293  0.06539033  0.02783541    -0.78510
O17         O  0.89879070  0.04088067  0.03996282    -0.78660
C18         C  0.88346581  0.01392471  0.04634586     1.01920
Cr19       Cr  0.87818460  0.04445363  0.11832901     1.93740
Cr20       Cr  0.82915965  0.10588464  0.10911269     1.93210
Cr21       Cr  0.87522975  0.08458463  0.04681571     1.39100
O22         O  0.86078626  0.07849505  0.09251580    -1.23750
O23         O  0.63171608  0.16949109  0.83763980    -0.86000
O24         O  0.57990260  0.16622779  0.88585823    -0.83040
C25         C  0.56522277  0.15451514  0.91377315     0.97460
O26         O  0.57820263  0.15784000  0.94515567    -0.83080
O27         O  0.61292461  0.10021742  0.94033644    -0.85720
C28         C  0.63524849  0.07841630  0.93686923     1.01990
O29         O  0.66164348  0.08694084  0.92015456    -0.78480
O30         O  0.64423388  0.11673084  0.85322897    -0.78670
C31         C  0.63550181  0.13801468  0.82920099     1.01940
O32         O  0.66612756  0.21522111  0.88798296    -0.85990
O33         O  0.61083563  0.21855295  0.93372688    -0.83060
C34         C  0.62439727  0.21719724  0.96522182     0.97480
O35         O  0.63745395  0.18990369  0.97596587    -0.83090
O36         O  0.66913569  0.12872289  0.97565286    -0.85690
C37         C  0.69803011  0.13340194  0.96295550     1.01960
O38         O  0.70204710  0.14607441  0.93172515    -0.78510
O39         O  0.69194228  0.17136055  0.86409392    -0.78660
C40         C  0.69205830  0.20266014  0.87368922     1.01920
Cr41       Cr  0.62302500  0.19047340  0.88793949     1.93740
Cr42       Cr  0.62532446  0.14533470  0.95650971     1.93210
Cr43       Cr  0.67256334  0.13175433  0.89320137     1.39100
O44         O  0.64035624  0.15597964  0.91261563    -1.23750
O45         O  0.87297120  0.31770459  0.83768071    -0.86960
O46         O  0.92472600  0.31857256  0.88515579    -0.83040
C47         C  0.93973485  0.33091894  0.91218377     0.97460
O48         O  0.92656616  0.33049851  0.94369704    -0.83080
O49         O  0.89323844  0.39060594  0.93666806    -0.85720
C50         C  0.87036268  0.41196375  0.93345817     1.01990
O51         O  0.84401530  0.40296469  0.91759940    -0.78480
O52         O  0.86196284  0.37162625  0.85063294    -0.78670
C53         C  0.87048441  0.34895508  0.82797123     1.01940
O54         O  0.83619755  0.27457621  0.88832414    -0.85990
O55         O  0.88972022  0.26946789  0.93418887    -0.83060
C56         C  0.87727820  0.27284028  0.96616712     0.97480
O57         O  0.86832236  0.30163043  0.97757013    -0.83090
O58         O  0.83686419  0.36211761  0.97430916    -0.85690
C59         C  0.80801058  0.35643714  0.96256842     1.01960
O60         O  0.80316375  0.34549837  0.93086726    -0.78510
O61         O  0.81209276  0.31917633  0.86382998    -0.78660
C62         C  0.81099212  0.28798937  0.87387887     1.01920
Cr63       Cr  0.88020569  0.29728077  0.88807044     1.93740
Cr64       Cr  0.88036415  0.34523303  0.95496133     1.93210
Cr65       Cr  0.83296555  0.35824380  0.89168842     1.39100
O66         O  0.86446483  0.33331934  0.91176996    -1.23750
O67         O  0.57291668  0.41895696  0.11718521    -0.86000
O68         O  0.62240168  0.42215905  0.16851354    -0.83040
C69         C  0.62384953  0.39097443  0.17865181     0.97460
O70         O  0.63247587  0.36805967  0.15636268    -0.83080
O71         O  0.65302465  0.33601830  0.09044725    -0.85720
C72         C  0.62787462  0.32828473  0.07134322     1.01990
O73         O  0.60597205  0.35052105  0.06700597    -0.78480
O74         O  0.57554140  0.41155187  0.05806592    -0.78670
C75         C  0.55998076  0.40811096  0.08806158     1.01940
O76         O  0.60850151  0.46878863  0.07044398    -0.85990
O77         O  0.66062973  0.46479187  0.11922465    -0.83060
C78         C  0.68531454  0.45195474  0.13547713     0.97480
O79         O  0.68424877  0.42063191  0.14585138    -0.83090
O80         O  0.69708725  0.39248559  0.08112270    -0.85690
C81         C  0.69413668  0.38307492  0.04864050     1.01960
O82         O  0.66607357  0.37711776  0.03495161    -0.78510
O83         O  0.63764074  0.43872750  0.03136595    -0.78660
C84         C  0.62424849  0.46640954  0.04018629     1.01920
Cr85       Cr  0.61691496  0.44168239  0.11744181     1.93740
Cr86       Cr  0.66424293  0.38068572  0.11751722     1.93210
Cr87       Cr  0.62194223  0.39524322  0.05070750     1.39100
O88         O  0.63456546  0.40600382  0.09515379    -1.23750
O89         O  0.92587720  0.17174475  0.38624592    -0.86000
O90         O  0.87455252  0.17301417  0.33703314    -0.83040
C91         C  0.87351205  0.14162084  0.32778785     0.97460
O92         O  0.86628974  0.11929041  0.35154563    -0.83080
O93         O  0.85043930  0.08735107  0.41888981    -0.85720
C94         C  0.87680520  0.08144130  0.43662961     1.01990
O95         O  0.89779551  0.10462829  0.43954324    -0.78480
O96         O  0.92600050  0.16656826  0.44553311    -0.78670
C97         C  0.94030325  0.16184405  0.41500676     1.01940
O98         O  0.89055160  0.22204981  0.43347566    -0.85990
O99         O  0.83632889  0.21554131  0.38697233    -0.83060
C100        C  0.81121497  0.20081488  0.37356834     0.97480
O101        O  0.81335129  0.16949720  0.36386417    -0.83090
O102        O  0.80435341  0.14155425  0.42988102    -0.85690
C103        C  0.80914245  0.13245455  0.46224513     1.01960
O104        O  0.83795148  0.12872405  0.47488978    -0.78510
O105        O  0.86401381  0.19180856  0.47487285    -0.78660
C106        C  0.87643757  0.21964622  0.46477978     1.01920
Cr107      Cr  0.88112553  0.19366634  0.38749441     1.93740
Cr108      Cr  0.83601768  0.13102853  0.39182904     1.93210
Cr109      Cr  0.88057883  0.14862015  0.45589922     1.39100
O110        O  0.86551095  0.15800339  0.41188784    -1.23750
O111        O  0.62807770  0.06341341  0.66859790    -0.86000
O112        O  0.57671157  0.06452228  0.61931290    -0.83040
C113        C  0.56192978  0.07364913  0.59048286     0.97460
O114        O  0.57657011  0.07099531  0.55985630    -0.83080
O115        O  0.60484196  0.13330127  0.56620001    -0.85720
C116        C  0.62568608  0.15651510  0.57071415     1.01990
O117        O  0.65191756  0.14976061  0.58837131    -0.78480
O118        O  0.63571467  0.11763882  0.65520551    -0.78670
C119        C  0.62854208  0.09470379  0.67821884     1.01940
O120        O  0.66630815  0.02176656  0.61835323    -0.85990
O121        O  0.61241937  0.01510860  0.57213690    -0.83060
C122        C  0.62616406  0.01765178  0.54069530     0.97480
O123        O  0.63850095  0.04557372  0.53055814    -0.83090
O124        O  0.66478397  0.10903497  0.53165805    -0.85690
C125        C  0.69352992  0.10540915  0.54454366     1.01960
O126        O  0.69821220  0.09609799  0.57689353    -0.78510
O127        O  0.68892453  0.06741041  0.64260589    -0.78660
C128        C  0.69117066  0.03620739  0.63252743     1.01920
Cr129      Cr  0.62157254  0.04325683  0.61807003     1.93740
Cr130      Cr  0.62209326  0.08897196  0.55003490     1.93210
Cr131      Cr  0.66625703  0.10609088  0.61487539     1.39100
O132        O  0.63692062  0.07929008  0.59416751    -1.23750
O133        O  0.57487107  0.31732686  0.38704941    -0.86000
O134        O  0.62636090  0.31546810  0.33755034    -0.83040
C135        C  0.63035279  0.34704456  0.32936728     0.97460
O136        O  0.63965601  0.36786818  0.35338874    -0.83080
O137        O  0.65957811  0.39642885  0.42009056    -0.85720
C138        C  0.63351740  0.40597218  0.43672546     1.01990
O139        O  0.61026324  0.38509840  0.43981458    -0.78480
O140        O  0.57456662  0.32701222  0.44614257    -0.78670
C141        C  0.56063779  0.32918986  0.41523447     1.01940
O142        O  0.60737730  0.26510317  0.43334809    -0.85990
O143        O  0.66226235  0.26877307  0.38710485    -0.83060
C144        C  0.68806757  0.28157094  0.37265268     0.97480
O145        O  0.68703491  0.31264448  0.36223827    -0.83090
O146        O  0.69884203  0.33651425  0.42981328    -0.85690
C147        C  0.69487383  0.34715532  0.46182381     1.01960
O148        O  0.66631353  0.35345985  0.47465950    -0.78510
O149        O  0.63270547  0.29415360  0.47615307    -0.78660
C150        C  0.62072503  0.26662810  0.46482177     1.01920
Cr151      Cr  0.61868169  0.29360933  0.38782229     1.93740
Cr152      Cr  0.66872346  0.35188275  0.39233397     1.93210
Cr153      Cr  0.62177543  0.33899522  0.45621683     1.39100
O154        O  0.63635548  0.32795208  0.41226993    -1.23750
O155        O  0.87462306  0.42278591  0.66750280    -0.86000
O156        O  0.92610396  0.41879341  0.61862615    -0.83040
C157        C  0.94041608  0.40648596  0.59077978     0.97460
O158        O  0.92690967  0.40884622  0.55969887    -0.83080
O159        O  0.89285307  0.35057869  0.56802446    -0.85720
C160        C  0.87022230  0.32912546  0.57122670     1.01990
O161        O  0.84409935  0.33794807  0.58824130    -0.78480
O162        O  0.86264304  0.36936052  0.65412887    -0.78670
C163        C  0.87160092  0.39148247  0.67699116     1.01940
O164        O  0.83879156  0.46699615  0.61640106    -0.85990
O165        O  0.89395290  0.46937266  0.56985782    -0.83060
C166        C  0.88154199  0.46673456  0.53792165     0.97480
O167        O  0.86804967  0.43933899  0.52861890    -0.83090
O168        O  0.83610175  0.37905999  0.53174336    -0.85690
C169        C  0.80734129  0.38465021  0.54433117     1.01960
O170        O  0.80293642  0.39593304  0.57602643    -0.78510
O171        O  0.81404419  0.42327940  0.64232125    -0.78660
C172        C  0.81316230  0.45429792  0.63138859     1.01920
Cr173      Cr  0.88244729  0.44256331  0.61655613     1.93740
Cr174      Cr  0.88007777  0.39543227  0.54987803     1.93210
Cr175      Cr  0.83344051  0.38313295  0.61424079     1.39100
O176        O  0.86513980  0.40732185  0.59337643    -1.23750
O177        O  0.07670854  0.16587788  0.11960300    -0.86000
O178        O  0.12806248  0.16884646  0.16822686    -0.83040
C179        C  0.13098876  0.13742555  0.17722740     0.97460
O180        O  0.13991524  0.11551980  0.15381517    -0.83080
O181        O  0.16105452  0.08675288  0.08520493    -0.85720
C182        C  0.13590767  0.07760282  0.06674839     1.01990
O183        O  0.11276044  0.09851696  0.06261275    -0.78480
O184        O  0.07660871  0.15648360  0.06025054    -0.78670
C185        C  0.06261371  0.15434906  0.09146338     1.01940
O186        O  0.10824079  0.21886077  0.07321461    -0.85990
O187        O  0.16297281  0.21495155  0.11844997    -0.83060
C188        C  0.18870862  0.20259617  0.13296223     0.97480
O189        O  0.18826652  0.17136140  0.14354711    -0.83090
O190        O  0.20080139  0.14733571  0.07790721    -0.85690
C191        C  0.19777027  0.13731989  0.04585859     1.01960
O192        O  0.16948612  0.13265446  0.03200946    -0.78510
O193        O  0.13593554  0.19110259  0.03126882    -0.78660
C194        C  0.12316103  0.21828046  0.04241509     1.01920
Cr195      Cr  0.11990614  0.19006452  0.11832895     1.93740
Cr196      Cr  0.16974997  0.13147176  0.11421491     1.93210
Cr197      Cr  0.12437839  0.14572360  0.04954944     1.39100
O198        O  0.13778488  0.15558825  0.09402109    -1.23750
O199        O  0.38918054  0.06812279  0.84095696    -0.86000
O200        O  0.42849374  0.05963069  0.90191478    -0.83040
C201        C  0.43849627  0.08765209  0.91678984     0.97460
O202        O  0.42116347  0.10340528  0.94024762    -0.83080
O203        O  0.36535536  0.13620519  0.96339727    -0.85720
C204        C  0.37100509  0.15879654  0.94008659     1.01990
O205        O  0.36581016  0.15219891  0.90656398    -0.78480
O206        O  0.35639246  0.11292882  0.84408172    -0.78670
C207        C  0.37660328  0.09466305  0.82672316     1.01940
O208        O  0.33627946  0.02741911  0.87414011    -0.85990
O209        O  0.37256779  0.01309444  0.93244668    -0.83060
C210        C  0.38442513  0.01621835  0.96391605     0.97480
O211        O  0.39822789  0.04364881  0.97144544    -0.83090
O212        O  0.33372819  0.07537864  0.97701894    -0.85690
C213        C  0.30993641  0.09441688  0.96641445     1.01960
O214        O  0.31289529  0.11445583  0.93945238    -0.78510
O215        O  0.30475080  0.07338658  0.88100752    -0.78660
C216        C  0.30789236  0.04130548  0.87545233     1.01920
Cr217      Cr  0.38103444  0.04483290  0.88938756     1.93740
Cr218      Cr  0.37843944  0.08844781  0.95901027     1.93210
Cr219      Cr  0.33739613  0.11083904  0.89375634     1.39100
O220        O  0.36565696  0.08127574  0.91303137    -1.23750
O221        O  0.13017352  0.41975985  0.83675526    -0.86000
O222        O  0.07716962  0.41750863  0.88261514    -0.83040
C223        C  0.06147673  0.40544942  0.90960721     0.97460
O224        O  0.07319127  0.40740476  0.94148323    -0.83080
O225        O  0.10777972  0.34873513  0.93552102    -0.85720
C226        C  0.13116138  0.32788303  0.93509580     1.01990
O227        O  0.15835104  0.33734763  0.92050842    -0.78480
O228        O  0.14261057  0.36685473  0.85203497    -0.78670
C229        C  0.13317267  0.38817890  0.82825197     1.01940
O230        O  0.16365065  0.46530938  0.88842013    -0.85990
O231        O  0.10781362  0.46883077  0.93227948    -0.83060
C232        C  0.11852329  0.46578172  0.96499229     0.97480
O233        O  0.12904920  0.43768158  0.97660513    -0.83090
O234        O  0.16247312  0.37873238  0.97519750    -0.85690
C235        C  0.19138021  0.38696894  0.96490886     1.01960
O236        O  0.19681472  0.39739198  0.93292254    -0.78510
O237        O  0.19017863  0.42190288  0.86431473    -0.78660
C238        C  0.18965931  0.45325745  0.87395768     1.01920
Cr239      Cr  0.12043850  0.44095933  0.88665547     1.93740
Cr240      Cr  0.11912842  0.39397247  0.95424769     1.93210
Cr241      Cr  0.16947508  0.38222423  0.89323022     1.39100
O242        O  0.13640761  0.40608471  0.91155994    -1.23750
O243        O  0.42521514  0.31719541  0.11736685    -0.86000
O244        O  0.37376925  0.31380264  0.16686703    -0.83040
C245        C  0.37034902  0.34495269  0.17682662     0.97460
O246        O  0.36140317  0.36747279  0.15420734    -0.83080
O247        O  0.34510925  0.40016316  0.08836427    -0.85720
C248        C  0.37226904  0.40923161  0.07338933     1.01990
O249        O  0.39461266  0.38735773  0.06985113    -0.78480
O250        O  0.42582451  0.32682286  0.05843102    -0.78670
C251        C  0.44015334  0.32768866  0.08900378     1.01940
O252        O  0.39134776  0.26876729  0.06771639    -0.85990
O253        O  0.33725716  0.27078236  0.11545191    -0.83060
C254        C  0.31169428  0.28335055  0.13054656     0.97480
O255        O  0.31220151  0.31451171  0.14089672    -0.83090
O256        O  0.30345969  0.34219521  0.07464459    -0.85690
C257        C  0.30803687  0.35377392  0.04302005     1.01960
O258        O  0.33673914  0.36199990  0.03220954    -0.78510
O259        O  0.36639185  0.30112962  0.02728523    -0.78660
C260        C  0.37885980  0.27293657  0.03585994     1.01920
Cr261      Cr  0.38110288  0.29458419  0.11545788     1.93740
Cr262      Cr  0.33293313  0.35470096  0.11358468     1.93210
Cr263      Cr  0.38001166  0.34349814  0.04990836     1.39100
O264        O  0.36457832  0.33061578  0.09297568    -1.23750
O265        O  0.07376464  0.06751654  0.38944070    -0.86000
O266        O  0.12483968  0.06403458  0.33863799    -0.83040
C267        C  0.12843477  0.09529747  0.32923598     0.97460
O268        O  0.13716021  0.11715550  0.35252944    -0.83080
O269        O  0.15387506  0.14801329  0.41939216    -0.85720
C270        C  0.12738029  0.15529340  0.43677998     1.01990
O271        O  0.10540532  0.13310057  0.43990746    -0.78480
O272        O  0.07500228  0.07236927  0.44857530    -0.78670
C273        C  0.06018950  0.07782794  0.41877238     1.01940
O274        O  0.10808494  0.01594397  0.43615327    -0.85990
O275        O  0.16162147  0.01944287  0.38836437    -0.83060
C276        C  0.18762228  0.03252904  0.37458876     0.97480
O277        O  0.18690679  0.06380467  0.36426472    -0.83090
O278        O  0.19713920  0.09056382  0.43045777    -0.85690
C279        C  0.19304826  0.10124560  0.46240858     1.01960
O280        O  0.16439444  0.10737821  0.47483060    -0.78510
O281        O  0.13592925  0.04514948  0.47655302    -0.78660
C282        C  0.12252185  0.01768812  0.46711681     1.01920
Cr283      Cr  0.11784407  0.04360729  0.38952473     1.93740
Cr284      Cr  0.16638280  0.10347143  0.39252447     1.93210
Cr285      Cr  0.12097804  0.08878962  0.45718988     1.39100
O286        O  0.13531658  0.07841524  0.41306053    -1.23750
O287        O  0.37560091  0.16847742  0.66589083    -0.86000
O288        O  0.42762748  0.16598198  0.61668989    -0.83040
C289        C  0.44204183  0.15522295  0.58811613     0.97460
O290        O  0.42809484  0.15915785  0.55758469    -0.83080
O291        O  0.39567395  0.09851936  0.56613612    -0.85720
C292        C  0.37279331  0.07706916  0.56891736     1.01990
O293        O  0.34598765  0.08623030  0.58439859    -0.78480
O294        O  0.36167766  0.11608546  0.65120955    -0.78670
C295        C  0.37175994  0.13697384  0.67476300     1.01940
O296        O  0.34018497  0.21448452  0.61520889    -0.85990
O297        O  0.39450111  0.21752648  0.56861979    -0.83060
C298        C  0.38109366  0.21497423  0.53710491     0.97480
O299        O  0.36921168  0.18703829  0.52698589    -0.83090
O300        O  0.33923261  0.12615643  0.52844300    -0.85690
C301        C  0.31036217  0.13402071  0.53886133     1.01960
O302        O  0.30509042  0.14483215  0.57068382    -0.78510
O303        O  0.31367109  0.17056724  0.63830638    -0.78660
C304        C  0.31384111  0.20193128  0.62854525     1.01920
Cr305      Cr  0.38364442  0.18970731  0.61516693     1.93740
Cr306      Cr  0.38223658  0.14348485  0.54775795     1.93210
Cr307      Cr  0.33403640  0.13092658  0.61030555     1.39100
O308        O  0.36652652  0.15495755  0.59109046    -1.23750
O309        O  0.12923466  0.31149614  0.66712928    -0.86000
O310        O  0.07631507  0.31579464  0.62064125    -0.83040
C311        C  0.06102277  0.32724862  0.59316894     0.97460
O312        O  0.07392585  0.32463590  0.56169068    -0.83080
O313        O  0.10528741  0.38431545  0.57064861    -0.85720
C314        C  0.12706264  0.40669686  0.57283969     1.01990
O315        O  0.15419938  0.39897303  0.58816228    -0.78480
O316        O  0.13921706  0.36554503  0.65470245    -0.78670
C317        C  0.13140442  0.34256318  0.67742905     1.01940
O318        O  0.16430944  0.26946590  0.61392787    -0.85990
O319        O  0.10888980  0.26659269  0.56946390    -0.83060
C320        C  0.12122738  0.27005107  0.53729949     0.97480
O321        O  0.13315677  0.29823198  0.52777300    -0.83090
O322        O  0.16236786  0.35964692  0.53019867    -0.85690
C323        C  0.19146922  0.35371551  0.54106787     1.01960
O324        O  0.19699577  0.34298671  0.57279911    -0.78510
O325        O  0.18967294  0.31333323  0.63839808    -0.78660
C326        C  0.19018612  0.28219596  0.62770870     1.01920
Cr327      Cr  0.12038708  0.29279572  0.61627921     1.93740
Cr328      Cr  0.11966533  0.34091175  0.55034142     1.93210
Cr329      Cr  0.16754273  0.35370790  0.61274925     1.39100
O330        O  0.13624376  0.32877822  0.59289349    -1.23750
O331        O  0.42406527  0.41807176  0.38285530    -0.86000
O332        O  0.37074242  0.42039076  0.33661650    -0.83040
C333        C  0.36940046  0.38905137  0.32736039     0.97460
O334        O  0.36257089  0.36633935  0.35069275    -0.83080
O335        O  0.34935810  0.33456792  0.41817172    -0.85720
C336        C  0.37658788  0.32732746  0.43366578     1.01990
O337        O  0.39771302  0.35038124  0.43702847    -0.78480
O338        O  0.42692190  0.41221449  0.44219753    -0.78670
C339        C  0.43976489  0.40843177  0.41084178     1.01940
O340        O  0.39123783  0.46852276  0.43218926    -0.85990
O341        O  0.33523973  0.46308897  0.38849196    -0.83060
C342        C  0.30952175  0.44906267  0.37565841     0.97480
O343        O  0.31075388  0.41759762  0.36621575    -0.83090
O344        O  0.30464559  0.38931170  0.43263371    -0.85690
C345        C  0.31066646  0.38016596  0.46480906     1.01960
O346        O  0.33994570  0.37531869  0.47558546    -0.78510
O347        O  0.36705868  0.43791929  0.47506436    -0.78660
C348        C  0.37907412  0.46580046  0.46443666     1.01920
Cr349      Cr  0.37971214  0.44055056  0.38665088     1.93740
Cr350      Cr  0.33424735  0.37854133  0.39269236     1.93210
Cr351      Cr  0.38186377  0.39467982  0.45455329     1.39100
O352        O  0.36492088  0.40483844  0.41148670    -1.23750
C353        C  0.24511886  0.33560672  0.51951838    -0.26970
C354        C  0.22015516  0.36051235  0.51832666    -0.15040
C355        C  0.22633551  0.39286589  0.50207650     0.35590
C356        C  0.25739731  0.39897924  0.48709943    -0.26410
C357        C  0.28237716  0.37407655  0.48839852    -0.15650
C358        C  0.27642073  0.34205354  0.50543878     0.36680
N359        N  0.30055007  0.31506528  0.50807533    -0.89900
H360        H  0.24048371  0.31103330  0.53266099     0.17790
H361        H  0.26201797  0.42345629  0.47375279     0.17780
N362        N  0.20285043  0.42058438  0.50144780    -0.88930
H363        H  0.30409974  0.30979015  0.53590253     0.35160
H364        H  0.32347602  0.32247910  0.49796216     0.40260
H365        H  0.18084556  0.41447674  0.51467203     0.39880
H366        H  0.19705361  0.42559748  0.47405489     0.34760
C367        C  0.25175912  0.20651568  0.63324668    -0.26970
C368        C  0.28262500  0.22320583  0.63156293    -0.15040
C369        C  0.28268250  0.25955374  0.62996949     0.35590
C370        C  0.25238844  0.27790957  0.62987989    -0.26410
C371        C  0.22152041  0.26116131  0.63055810    -0.15650
C372        C  0.22147569  0.22478960  0.63210455     0.36680
N373        N  0.19077266  0.20626501  0.63265107    -0.89900
H374        H  0.25114698  0.17874655  0.63397278     0.17790
H375        H  0.25294700  0.30565313  0.62825838     0.17780
N376        N  0.31345045  0.27788211  0.62814161    -0.88930
H377        H  0.19496655  0.18011450  0.63708064     0.35160
H378        H  0.18059965  0.20816604  0.60645825     0.40260
H379        H  0.32574719  0.27366545  0.65286637     0.39880
H380        H  0.30929259  0.30430065  0.62625465     0.34760
C381        C  0.40818870  0.26405612  0.50487163    -0.26970
C382        C  0.38030306  0.24338764  0.51004993    -0.15040
C383        C  0.35293224  0.24750210  0.48630119     0.35590
C384        C  0.35374390  0.27290214  0.45890793    -0.26410
C385        C  0.38088196  0.29492671  0.45490727    -0.15650
C386        C  0.40892046  0.28942961  0.47740096     0.36680
N387        N  0.43812081  0.30983000  0.47291869    -0.89900
H388        H  0.42973105  0.26022342  0.52190743     0.17790
H389        H  0.33211468  0.27677429  0.44203903     0.17780
N390        N  0.32356901  0.22714963  0.49127916    -0.88930
H391        H  0.45794621  0.29341507  0.46723491     0.35160
H392        H  0.44283380  0.32215017  0.49774503     0.40260
H393        H  0.32833986  0.20288285  0.48037709     0.39880
H394        H  0.30408316  0.23717259  0.47588307     0.34760
C395        C  0.40458440  0.03970114  0.52616559    -0.26970
C396        C  0.37534530  0.04509797  0.54671936    -0.15040
C397        C  0.34814286  0.02313116  0.54039302     0.35590
C398        C  0.35031455  0.99822271  0.51299075    -0.26410
C399        C  0.37891996  0.49420487  0.49122747    -0.15650
C400        C  0.40690065  0.51458061  0.49888911     0.36680
N401        N  0.43841475  0.50985662  0.48111819    -0.89900
H402        H  0.42599063  0.05565641  0.53074843     0.17790
H403        H  0.32902830  0.98197927  0.50830042     0.17780
N404        N  0.31779301  0.02551631  0.56070695    -0.88930
H405        H  0.44297443  0.53145916  0.46480287     0.35160
H406        H  0.43892704  0.48847571  0.46411714     0.40260
H407        H  0.32303119  0.02358373  0.58866083     0.39880
H408        H  0.30654072  0.04908577  0.55524716     0.34760
C409        C  0.27948667  0.00532781  0.36656089    -0.26970
C410        C  0.27793352  0.46957979  0.37187380    -0.15040
C411        C  0.24624647  0.45455666  0.37650134     0.35590
C412        C  0.21750120  0.47543541  0.37642751    -0.26410
C413        C  0.21898960  0.01128703  0.37138333    -0.15650
C414        C  0.25073458  0.02620896  0.36616360     0.36680
N415        N  0.25404612  0.06266282  0.36145251    -0.89900
H416        H  0.30349884  0.01725731  0.36327660     0.17790
H417        H  0.19363754  0.46347832  0.38078028     0.17780
N418        N  0.24325815  0.41831399  0.38307485    -0.88930
H419        H  0.27869115  0.06928125  0.35634818     0.35160
H420        H  0.24767232  0.07413905  0.38635449     0.40260
H421        H  0.24946059  0.40580624  0.35868378     0.39880
H422        H  0.21871685  0.41174167  0.38885045     0.34760
C423        C  0.13144500  0.21827057  0.44854668    -0.26970
C424        C  0.12504947  0.18521616  0.46135273    -0.15040
C425        C  0.11681936  0.18023330  0.49880534     0.35590
C426        C  0.11527146  0.20819924  0.52267390    -0.26410
C427        C  0.12173110  0.24149666  0.51023067    -0.15650
C428        C  0.12953009  0.24645989  0.47222277     0.36680
N429        N  0.13518171  0.27963758  0.45638009    -0.89900
H430        H  0.13761349  0.22228627  0.41989096     0.17790
H431        H  0.10955520  0.20357939  0.55133666     0.17780
N432        N  0.11116413  0.14646486  0.51318074    -0.88930
H433        H  0.15642571  0.29032708  0.46773647     0.35160
H434        H  0.11467856  0.29524852  0.46167305     0.40260
H435        H  0.08767961  0.14603681  0.52527562     0.39880
H436        H  0.12841550  0.14183038  0.53382582     0.34760
C437        C  0.10288437  0.43474428  0.51823485    -0.26970
C438        C  0.12335195  0.43752361  0.54929031    -0.15040
C439        C  0.14306892  0.46684388  0.55327782     0.35590
C440        C  0.14247010  0.99227119  0.52586205    -0.26410
C441        C  0.12274629  0.48900909  0.49416388    -0.15650
C442        C  0.10282097  0.45967619  0.49040740     0.36680
N443        N  0.08273789  0.45500432  0.45845265    -0.89900
H444        H  0.08800780  0.41196217  0.51447671     0.17790
H445        H  0.15787515  0.01471401  0.52927773     0.17780
N446        N  0.16391085  0.47049000  0.58476063    -0.88930
H447        H  0.06838828  0.43282197  0.46092091     0.35160
H448        H  0.09871854  0.45089258  0.43624296     0.40260
H449        H  0.14853607  0.47204843  0.60785544     0.39880
H450        H  0.17709611  0.99350884  0.58340408     0.34760
C451        C  0.25100034  0.08987337  0.47659956    -0.26970
C452        C  0.22241862  0.10931291  0.48324547    -0.15040
C453        C  0.22375751  0.13865573  0.50536071     0.35590
C454        C  0.25350277  0.14739003  0.52167833    -0.26410
C455        C  0.28194745  0.12751323  0.51577813    -0.15650
C456        C  0.28104742  0.09894873  0.49223508     0.36680
N457        N  0.31009018  0.07858084  0.48534690    -0.89900
H458        H  0.24990874  0.06768578  0.45881821     0.17790
H459        H  0.25427001  0.16961169  0.53945182     0.17780
N460        N  0.19536741  0.16015910  0.51043354    -0.88930
H461        H  0.30441132  0.05724208  0.46930176     0.35160
H462        H  0.32640903  0.09351447  0.46973180     0.40260
H463        H  0.20121910  0.18476456  0.50092963     0.39880
H464        H  0.19039142  0.16177403  0.53853919     0.34760
C465        C  0.34519219  0.37424879  0.22935232    -0.26970
C466        C  0.37210249  0.35525711  0.21568947    -0.15040
C467        C  0.39920140  0.34821112  0.23896066     0.35590
C468        C  0.39820542  0.35994436  0.27539840    -0.26410
C469        C  0.37131054  0.37919868  0.28857118    -0.15650
C470        C  0.34450759  0.38628912  0.26543847     0.36680
N471        N  0.31609175  0.40451814  0.27917404    -0.89900
H472        H  0.32431483  0.37950208  0.21170910     0.17790
H473        H  0.41868983  0.35430349  0.29344946     0.17780
N474        N  0.42847145  0.33075844  0.22646419    -0.88930
H475        H  0.29791259  0.40644734  0.25903659     0.35160
H476        H  0.32349388  0.42957165  0.28501166     0.40260
H477        H  0.42749469  0.32512349  0.19857698     0.39880
H478        H  0.42989792  0.30742002  0.24056258     0.34760
C479        C  0.13790334  0.34213442  0.78120665    -0.26970
C480        C  0.12840664  0.37596250  0.78992967    -0.15040
C481        C  0.11661372  0.39747797  0.76159655     0.35590
C482        C  0.11665433  0.38543152  0.72525994    -0.26410
C483        C  0.12765816  0.35220474  0.71651633    -0.15650
C484        C  0.13797545  0.33015407  0.74494545     0.36680
N485        N  0.15005899  0.29628226  0.73684451    -0.89900
H486        H  0.14676364  0.32518559  0.80258613     0.17790
H487        H  0.10846680  0.40231117  0.70345890     0.17780
N488        N  0.10510232  0.43156309  0.76952638    -0.88930
H489        H  0.15618383  0.28318799  0.76092635     0.35160
H490        H  0.17203822  0.29896885  0.72185173     0.40260
H491        H  0.08374423  0.42924112  0.78564992     0.39880
H492        H  0.09805653  0.44420757  0.74548610     0.34760
C493        C  0.25042740  0.39429506  0.97573984    -0.26970
C494        C  0.22004114  0.38079358  0.98788661    -0.15040
C495        C  0.21894737  0.35747359  0.01739870     0.35590
C496        C  0.24852649  0.34757222  0.03346571    -0.26410
C497        C  0.27892963  0.36083410  0.02102914    -0.15650
C498        C  0.28002674  0.38372849  0.99117472     0.36680
N499        N  0.31089603  0.39619818  0.97658617    -0.89900
H500        H  0.25130039  0.41222695  0.95297014     0.17790
H501        H  0.24768485  0.32970140  0.05628846     0.17780
N502        N  0.18819369  0.34333190  0.03044816    -0.88930
H503        H  0.30694939  0.41377106  0.95533703     0.35160
H504        H  0.32320859  0.37533960  0.96479259     0.40260
H505        H  0.17480492  0.36326643  0.04262512     0.39880
H506        H  0.19223131  0.32511158  0.05105395     0.34760
C507        C  0.38901236  0.14734241  0.73980363    -0.26970
C508        C  0.37725529  0.12449864  0.71320806    -0.15040
C509        C  0.36977221  0.09025525  0.72422913     0.35590
C510        C  0.37348316  0.08038167  0.76113108    -0.26410
C511        C  0.38311202  0.10388537  0.78785612    -0.15650
C512        C  0.39186690  0.13763308  0.77681787     0.36680
N513        N  0.40318112  0.16292857  0.80238470    -0.89900
H514        H  0.39526374  0.17340706  0.73206235     0.17790
H515        H  0.36618238  0.05479418  0.76962068     0.17780
N516        N  0.35691537  0.06582613  0.69855386    -0.88930
H517        H  0.42706953  0.17008733  0.79437733     0.35160
H518        H  0.40542075  0.15258564  0.82860581     0.40260
H519        H  0.33283275  0.07346466  0.69219018     0.39880
H520        H  0.35479964  0.04153678  0.71058531     0.34760
C521        C  0.22968192  0.49157992  0.90404366    -0.26970
C522        C  0.22004702  0.47539112  0.87166512    -0.15040
C523        C  0.24004827  0.48041881  0.83982071     0.35590
C524        C  0.26825449  0.50211704  0.84142287    -0.26410
C525        C  0.27743835  0.01885214  0.87401982    -0.15650
C526        C  0.25799653  0.01220784  0.90595329     0.36680
N527        N  0.26726248  0.02377788  0.94163334    -0.89900
H528        H  0.21555759  0.48707465  0.92897355     0.17790
H529        H  0.28300073  0.50606743  0.81686644     0.17780
N530        N  0.23209579  0.46512802  0.80522393    -0.88930
H531        H  0.24841187  0.03942603  0.95190100     0.35160
H532        H  0.28888885  0.03797948  0.94042899     0.40260
H533        H  0.21010087  0.45125222  0.80664025     0.39880
H534        H  0.25092549  0.44773668  0.79876774     0.34760
C535        C  0.40818969  0.48143572  0.01506384    -0.26970
C536        C  0.38098932  0.48945056  0.99287434    -0.15040
C537        C  0.34999722  0.47483734  0.00154037     0.35590
C538        C  0.34724993  0.45111880  0.03060855    -0.26410
C539        C  0.37491823  0.44113203  0.05110227    -0.15650
C540        C  0.40569883  0.45713855  0.04346770     0.36680
N541        N  0.43480007  0.44950724  0.06417929    -0.89900
H542        H  0.43182961  0.49357381  0.00970268     0.17790
H543        H  0.32355333  0.43920989  0.03619122     0.17780
N544        N  0.32117989  0.48494962  0.98154312    -0.88930
H545        H  0.44186489  0.42411606  0.05959021     0.35160
H546        H  0.42933880  0.45265753  0.09202009     0.40260
H547        H  0.31664325  0.01050758  0.98837865     0.39880
H548        H  0.30046902  0.47119288  0.99053580     0.34760
C549        C  0.40206068  0.21856202  0.01126149    -0.26970
C550        C  0.37999262  0.24584604  0.00723422    -0.15040
C551        C  0.36000490  0.24744190  0.97519203     0.35590
C552        C  0.36136005  0.22067689  0.94938120    -0.26410
C553        C  0.38133803  0.19203834  0.95532920    -0.15650
C554        C  0.40296743  0.19169794  0.98586433     0.36680
N555        N  0.42376945  0.16243297  0.99273306    -0.89900
H556        H  0.41805576  0.21761793  0.03494329     0.17790
H557        H  0.34419445  0.22048246  0.92670825     0.17780
N558        N  0.33704285  0.27517917  0.96976832    -0.88930
H559        H  0.43613517  0.16497125  0.01764640     0.35160
H560        H  0.44206212  0.16196533  0.97245886     0.40260
H561        H  0.31871307  0.27310154  0.99000928     0.39880
H562        H  0.32506030  0.27286551  0.94459585     0.34760
C563        C  0.10662791  0.10148899  0.22760952    -0.26970
C564        C  0.12857917  0.12735245  0.21615627    -0.15040
C565        C  0.14965056  0.14272518  0.24185558     0.35590
C566        C  0.14811313  0.13234833  0.27859165    -0.26410
C567        C  0.12647686  0.10632118  0.29035153    -0.15650
C568        C  0.10513257  0.09099777  0.26470704     0.36680
N569        N  0.08190116  0.06529503  0.27643069    -0.89900
H570        H  0.09055053  0.08970541  0.20765129     0.17790
H571        H  0.16493681  0.14385767  0.29797228     0.17780
N572        N  0.17352540  0.16789918  0.23025060    -0.88930
H573        H  0.06797120  0.05675643  0.25423168     0.35160
H574        H  0.06530159  0.07693520  0.29464852     0.40260
H575        H  0.19084754  0.15538547  0.21361931     0.39880
H576        H  0.18660906  0.17731621  0.25267620     0.34760
C577        C  0.25076741  0.20745171  0.13791122    -0.26970
C578        C  0.21978695  0.22397266  0.13604729    -0.15040
C579        C  0.21951727  0.26038818  0.13452377     0.35590
C580        C  0.24965903  0.27886783  0.13477807    -0.26410
C581        C  0.28059267  0.26226713  0.13504010    -0.15650
C582        C  0.28092759  0.22596606  0.13696217     0.36680
N583        N  0.31188067  0.20786026  0.13770874    -0.89900
H584        H  0.25156032  0.17970814  0.13898139     0.17790
H585        H  0.24893751  0.30660279  0.13299653     0.17780
N586        N  0.18874832  0.27877097  0.13256263    -0.88930
H587        H  0.30797223  0.18136472  0.13856093     0.35160
H588        H  0.32372688  0.21430549  0.16210747     0.40260
H589        H  0.17938306  0.27528526  0.10620528     0.39880
H590        H  0.19271196  0.30514582  0.13511768     0.34760
C591        C  0.10609284  0.02456174  0.04705217    -0.26970
C592        C  0.13452493  0.04525033  0.04473309    -0.15040
C593        C  0.15710070  0.03874469  0.01551449     0.35590
C594        C  0.14997204  0.01425722  0.98888436    -0.26410
C595        C  0.12104099  0.49498186  0.99038414    -0.15650
C596        C  0.09966373  0.49877470  0.02086693     0.36680
N597        N  0.07145234  0.47669282  0.02495156    -0.89900
H598        H  0.08872865  0.02866324  0.06921363     0.17790
H599        H  0.16749641  0.01010643  0.96670239     0.17780
N600        N  0.18650691  0.05807317  0.01011328    -0.88930
H601        H  0.05799833  0.48312620  0.04852544     0.35160
H602        H  0.08018748  0.45173435  0.02907087     0.40260
H603        H  0.19899376  0.06005508  0.03496376     0.39880
H604        H  0.17929803  0.08190032  0.00022230     0.34760
C605        C  0.15766953  0.28368969  0.97507743    -0.26970
C606        C  0.12874588  0.29702303  0.95936809    -0.15040
C607        C  0.09781335  0.28529585  0.97297608     0.35590
C608        C  0.09638782  0.26125111  0.00179362    -0.26410
C609        C  0.12525574  0.24818951  0.01741022    -0.15650
C610        C  0.15628445  0.25941370  0.00379398     0.36680
N611        N  0.18633239  0.24698024  0.02005663    -0.89900
H612        H  0.18150832  0.29313968  0.96588228     0.17790
H613        H  0.07255268  0.25190973  0.01117747     0.17780
N614        N  0.06759802  0.29753127  0.95747873    -0.88930
H615        H  0.20684028  0.25961437  0.00883430     0.35160
H616        H  0.18902919  0.22115671  0.01309210     0.40260
H617        H  0.05370370  0.30910985  0.97831131     0.39880
H618        H  0.05438816  0.27630784  0.94815005     0.34760
C619        C  0.22645542  0.12766970  0.98834097    -0.26970
C620        C  0.22716997  0.12632915  0.02636108    -0.15040
C621        C  0.25336743  0.10949518  0.04484541     0.35590
C622        C  0.27912204  0.09529215  0.02430266    -0.26410
C623        C  0.27896018  0.09799899  0.98625407    -0.15650
C624        C  0.25149712  0.11278790  0.96787365     0.36680
N625        N  0.24997913  0.11429490  0.92842189    -0.89900
H626        H  0.20578957  0.13972981  0.97455100     0.17790
H627        H  0.30026606  0.08418145  0.03806319     0.17780
N628        N  0.25354580  0.10637945  0.08415319    -0.88930
H629        H  0.22879046  0.12727012  0.91970128     0.35160
H630        H  0.24799292  0.08930247  0.91861257     0.40260
H631        H  0.25847521  0.13069053  0.09475208     0.39880
H632        H  0.27299712  0.09065147  0.09271102     0.34760
C633        C  0.97012094  0.35064325  0.59310258    -0.26970
C634        C  0.97149754  0.38669854  0.59461434    -0.15040
C635        C  0.00222328  0.40276896  0.59932964     0.35590
C636        C  0.03101507  0.38246377  0.60133891    -0.26410
C637        C  0.02973876  0.34655118  0.59746799    -0.15650
C638        C  0.99894092  0.33043651  0.59411575     0.36680
N639        N  0.99712706  0.29375217  0.59106165    -0.89900
H640        H  0.94658091  0.33798524  0.59096872     0.17790
H641        H  0.05456567  0.39489985  0.60513071     0.17780
N642        N  0.00412449  0.43951133  0.60144726    -0.88930
H643        H  0.97257261  0.28587619  0.58832925     0.35160
H644        H  0.00564069  0.28327184  0.61567887     0.40260
H645        H  0.99650926  0.44945841  0.57621656     0.39880
H646        H  0.02862230  0.44730465  0.60490348     0.34760
C647        C  0.52911146  0.38316030  0.42387426    -0.26970
C648        C  0.52927245  0.34889758  0.41202557    -0.15040
C649        C  0.50021519  0.33513000  0.39693974     0.35590
C650        C  0.47154646  0.35581597  0.39489955    -0.26410
C651        C  0.47151953  0.38989037  0.40760201    -0.15650
C652        C  0.50067451  0.40377547  0.42185988     0.36680
N653        N  0.50137911  0.43888001  0.43377904    -0.89900
H654        H  0.55129784  0.39396891  0.43489590     0.17790
H655        H  0.44880536  0.34496753  0.38457419     0.17780
N656        N  0.49939249  0.29989396  0.38562060    -0.88930
H657        H  0.52515083  0.44572206  0.44200591     0.35160
H658        H  0.48622679  0.44089520  0.45699087     0.40260
H659        H  0.51514573  0.29740213  0.36295927     0.39880
H660        H  0.47573255  0.29336226  0.37667286     0.34760
C661        C  0.72412130  0.34969567  0.52022202    -0.26970
C662        C  0.72398432  0.35584113  0.48258292    -0.15040
C663        C  0.75123615  0.37167971  0.46510199     0.35590
C664        C  0.77855831  0.38084220  0.48574647    -0.26410
C665        C  0.77858954  0.37495283  0.52344404    -0.15650
C666        C  0.75143407  0.35887941  0.54087742     0.36680
N667        N  0.75195264  0.35083382  0.57924026    -0.89900
H668        H  0.70319139  0.33738346  0.53350534     0.17790
H669        H  0.79946027  0.39319927  0.47245145     0.17780
N670        N  0.75073947  0.37961443  0.42670925    -0.88930
H671        H  0.74936294  0.32428696  0.58219543     0.35160
H672        H  0.73136898  0.36236803  0.59155306     0.40260
H673        H  0.77105735  0.36764048  0.41432500     0.39880
H674        H  0.75360321  0.40612043  0.42362164     0.34760
C675        C  0.47814017  0.10919745  0.56335365    -0.26970
C676        C  0.47322360  0.13493012  0.58978230    -0.15040
C677        C  0.49647042  0.13834997  0.61815768     0.35590
C678        C  0.52412522  0.11624402  0.61910908    -0.26410
C679        C  0.52911467  0.09074928  0.59236767    -0.15650
C680        C  0.50501737  0.08654449  0.56481118     0.36680
N681        N  0.50653400  0.05935063  0.53828257    -0.89900
H682        H  0.46023771  0.10579769  0.54174756     0.17790
H683        H  0.54266640  0.11991718  0.63994254     0.17780
N684        N  0.49253651  0.16480732  0.64516157    -0.88930
H685        H  0.48480587  0.04505373  0.54095294     0.35160
H686        H  0.52537224  0.04206020  0.54431569     0.40260
H687        H  0.49446370  0.18840722  0.63160555     0.39880
H688        H  0.51182369  0.16389758  0.66407234     0.34760
C689        C  0.78326385  0.01133014  0.63123220    -0.26970
C690        C  0.78198755  0.47542254  0.63558481    -0.15040
C691        C  0.75050816  0.46015754  0.64148144     0.35590
C692        C  0.72166586  0.48069873  0.64181742    -0.26410
C693        C  0.72292283  0.01642225  0.63676428    -0.15650
C694        C  0.75436531  0.03192270  0.63208528     0.36680
N695        N  0.75688636  0.06831899  0.62631759    -0.89900
H696        H  0.80700238  0.02349239  0.62667407     0.17790
H697        H  0.69778719  0.46851202  0.64527151     0.17780
N698        N  0.74754158  0.42365268  0.64586267    -0.88930
H699        H  0.78136034  0.07534422  0.62082324     0.35160
H700        H  0.75039596  0.08027979  0.65093435     0.40260
H701        H  0.75372736  0.41262297  0.62070705     0.39880
H702        H  0.72302173  0.41671587  0.65123347     0.34760
C703        C  0.65754865  0.48147597  0.49704215    -0.26970
C704        C  0.62714567  0.48897124  0.51424949    -0.15040
C705        C  0.59841672  0.47174412  0.50245057     0.35590
C706        C  0.60120252  0.44676414  0.47516682    -0.26410
C707        C  0.63172726  0.43807494  0.45882346    -0.15650
C708        C  0.66025827  0.45619661  0.46965234     0.36680
N709        N  0.69203345  0.44809417  0.45405216    -0.89900
H710        H  0.67946805  0.49531086  0.50534514     0.17790
H711        H  0.57903203  0.43335216  0.46745820     0.17780
N712        N  0.56585937  0.47941663  0.51624656    -0.88930
H713        H  0.71058098  0.46276680  0.46616258     0.35160
H714        H  0.69150671  0.45520476  0.42640220     0.40260
H715        H  0.56590333  0.99947771  0.53494549     0.39880
H716        H  0.55721034  0.45770389  0.53019346     0.34760
C717        C  0.59271594  0.22207444  0.50261924    -0.26970
C718        C  0.62223285  0.23697754  0.49008355    -0.15040
C719        C  0.65246898  0.22748187  0.50686556     0.35590
C720        C  0.65225289  0.20381699  0.53585337    -0.26410
C721        C  0.62293785  0.18805422  0.54786328    -0.15650
C722        C  0.59268902  0.19772759  0.53131939     0.36680
N723        N  0.56210368  0.18258865  0.54349215    -0.89900
H724        H  0.56952836  0.23011508  0.49059934     0.17790
H725        H  0.67570855  0.19610025  0.54745535     0.17780
N726        N  0.68399722  0.24063198  0.49475603    -0.88930
H727        H  0.54223061  0.19228405  0.52847574     0.35160
H728        H  0.55822140  0.18992163  0.57072677     0.40260
H729        H  0.68188630  0.25580547  0.47128098     0.39880
H730        H  0.69853440  0.21969130  0.48684082     0.34760
C731        C  0.00977395  0.10011540  0.38624127    -0.26970
C732        C  0.02881229  0.09848268  0.41832053    -0.15040
C733        C  0.01927402  0.11943694  0.44841224     0.35590
C734        C  0.99152241  0.14111275  0.44554498    -0.26410
C735        C  0.97224186  0.14239269  0.41374632    -0.15650
C736        C  0.98162640  0.12123850  0.38377890     0.36680
N737        N  0.96250164  0.11950430  0.35095112    -0.89900
H738        H  0.01660037  0.08454641  0.36283023     0.17790
H739        H  0.98447288  0.15672187  0.46884675     0.17780
N740        N  0.03793499  0.11924834  0.48180102    -0.88930
H741        H  0.96181600  0.14382944  0.33886412     0.35160
H742        H  0.93848151  0.11187003  0.35783620     0.40260
H743        H  0.03389139  0.09559476  0.49463872     0.39880
H744        H  0.02907995  0.13785297  0.49996926     0.34760
C745        C  0.77955213  0.25482602  0.35896776    -0.26970
C746        C  0.77915919  0.22018764  0.36968113    -0.15040
C747        C  0.74832214  0.20542289  0.37953870     0.35590
C748        C  0.71921003  0.22569357  0.37933672    -0.26410
C749        C  0.71950833  0.26057071  0.36894930    -0.15650
C750        C  0.75051502  0.27486175  0.35805318     0.36680
N751        N  0.75379991  0.30984403  0.34653658    -0.89900
H752        H  0.80286156  0.26666238  0.35142140     0.17790
H753        H  0.69610692  0.21412070  0.38800508     0.17780
N754        N  0.74676340  0.17034501  0.39167366    -0.88930
H755        H  0.74639309  0.32583349  0.36799213     0.35160
H756        H  0.73873335  0.31397108  0.32377860     0.40260
H757        H  0.75172682  0.15481258  0.36900695     0.39880
H758        H  0.72286548  0.16409459  0.40048665     0.34760
C759        C  0.88969686  0.02849972  0.52268156    -0.26970
C760        C  0.88263821  0.49530721  0.51070835    -0.15040
C761        C  0.87510284  0.49011227  0.47297428     0.35590
C762        C  0.87308268  0.01843272  0.44898486    -0.26410
C763        C  0.87988567  0.05147282  0.46130723    -0.15650
C764        C  0.88841769  0.05643926  0.49850854     0.36680
N765        N  0.89448845  0.09019368  0.51234962    -0.89900
H766        H  0.89539948  0.03306113  0.55123124     0.17790
H767        H  0.86668414  0.01467923  0.42048824     0.17780
N768        N  0.86970261  0.45617317  0.45893152    -0.88930
H769        H  0.91823069  0.09057555  0.52346996     0.35160
H770        H  0.87753403  0.09500645  0.53348937     0.40260
H771        H  0.89208184  0.44285417  0.46081723     0.39880
H772        H  0.86377508  0.45703041  0.43108915     0.34760
C773        C  0.84682848  0.25177119  0.51338479    -0.26970
C774        C  0.87538348  0.24801172  0.49152847    -0.15040
C775        C  0.90327904  0.26814913  0.49898476     0.35590
C776        C  0.90159060  0.29251894  0.52724083    -0.26410
C777        C  0.87239532  0.29772190  0.54808643    -0.15650
C778        C  0.84476713  0.27662367  0.54114424     0.36680
N779        N  0.81442158  0.28091371  0.56133644    -0.89900
H780        H  0.82560877  0.23560201  0.50816123     0.17790
H781        H  0.92311126  0.30829067  0.53218208     0.17780
N782        N  0.93331987  0.26349600  0.47828301    -0.88930
H783        H  0.79770284  0.26143485  0.55495583     0.35160
H784        H  0.80356339  0.30366945  0.55215540     0.40260
H785        H  0.94221403  0.23886293  0.48396195     0.39880
H786        H  0.95148787  0.28061888  0.48700059     0.34760
C787        C  0.77361946  0.14426046  0.51488331    -0.26970
C788        C  0.78047180  0.12431098  0.48413455    -0.15040
C789        C  0.75828545  0.09884799  0.47230850     0.35590
C790        C  0.72906360  0.09375090  0.49198014    -0.26410
C791        C  0.72223473  0.11364587  0.52276048    -0.15650
C792        C  0.74440009  0.13912765  0.53458650     0.36680
N793        N  0.73664946  0.16021701  0.56578250    -0.89900
H794        H  0.79073692  0.16417775  0.52298281     0.17790
H795        H  0.71193467  0.07385347  0.48385283     0.17780
N796        N  0.76604263  0.07769731  0.44115510    -0.88930
H797        H  0.75457949  0.17923154  0.56905966     0.35160
H798        H  0.73784762  0.14478088  0.58920954     0.40260
H799        H  0.76478932  0.09307718  0.41769043     0.39880
H800        H  0.74812231  0.05866436  0.43792831     0.34760
C801        C  0.47811426  0.36842365  0.11905079    -0.26970
C802        C  0.47298779  0.34412717  0.09128080    -0.15040
C803        C  0.49676947  0.34091034  0.06287887     0.35590
C804        C  0.52359814  0.36354323  0.06162151    -0.26410
C805        C  0.52861332  0.38826794  0.08899128    -0.15650
C806        C  0.50569381  0.39047125  0.11829063     0.36680
N807        N  0.51000158  0.41552629  0.14664967    -0.89900
H808        H  0.45969398  0.37131782  0.14054539     0.17790
H809        H  0.54142872  0.36078143  0.03952862     0.17780
N810        N  0.49497390  0.31466361  0.03530947    -0.88930
H811        H  0.49109362  0.41361109  0.16623667     0.35160
H812        H  0.50775206  0.43976654  0.13455652     0.40260
H813        H  0.47597040  0.29731279  0.04078881     0.39880
H814        H  0.51655887  0.30005987  0.03723456     0.34760
C815        C  0.60294474  0.34526656  0.26805006    -0.26970
C816        C  0.62681239  0.35961863  0.29118872    -0.15040
C817        C  0.64799379  0.38558910  0.27727498     0.35590
C818        C  0.64470383  0.39653569  0.24089461    -0.26410
C819        C  0.62123726  0.38199056  0.21773940    -0.15650
C820        C  0.59984139  0.35617855  0.23144090     0.36680
N821        N  0.57438824  0.34110440  0.20943753    -0.89900
H822        H  0.58651899  0.32553693  0.27850909     0.17790
H823        H  0.66160577  0.41565650  0.23000305     0.17780
N824        N  0.67414919  0.39937271  0.29930991    -0.88930
H825        H  0.58043760  0.31529132  0.20557776     0.35160
H826        H  0.57315005  0.35248375  0.18353236     0.40260
H827        H  0.66337194  0.41620058  0.31816369     0.39880
H828        H  0.69020237  0.41431213  0.28333985     0.34760
C829        C  0.97054590  0.38528356  0.90831598    -0.26970
C830        C  0.97116028  0.34933514  0.90676944    -0.15040
C831        C  0.00129507  0.33237677  0.90057880     0.35590
C832        C  0.03065622  0.35175113  0.89941684    -0.26410
C833        C  0.03004504  0.38755559  0.90424405    -0.15650
C834        C  0.99956786  0.40467936  0.90704996     0.36680
N835        N  0.99715607  0.44141143  0.90921517    -0.89900
H836        H  0.94728929  0.39850734  0.91053216     0.17790
H837        H  0.05414388  0.33881555  0.89581960     0.17780
N838        N  0.00193901  0.29582220  0.89589152    -0.88930
H839        H  0.98435729  0.44984719  0.88606276     0.35160
H840        H  0.02028603  0.45318036  0.90805656     0.40260
H841        H  0.99461936  0.28460888  0.92072483     0.39880
H842        H  0.02601548  0.28742604  0.89042753     0.34760
C843        C  0.90003742  0.37605224  0.77518895    -0.26970
C844        C  0.87249530  0.35831396  0.78906867    -0.15040
C845        C  0.84532571  0.35180282  0.76632673     0.35590
C846        C  0.84617670  0.36312494  0.72993131    -0.26410
C847        C  0.87358477  0.38085560  0.71568796    -0.15650
C848        C  0.90111258  0.38718816  0.73848457     0.36680
N849        N  0.93078300  0.40342654  0.72526287    -0.89900
H850        H  0.92085168  0.38109290  0.79291160     0.17790
H851        H  0.82502125  0.35845618  0.71256296     0.17780
N852        N  0.81647681  0.33476202  0.78070547    -0.88930
H853        H  0.93310061  0.42683734  0.73886800     0.35160
H854        H  0.92963974  0.40884065  0.69728541     0.40260
H855        H  0.82320009  0.30954739  0.78705238     0.39880
H856        H  0.79811151  0.33318535  0.76076019     0.34760
C857        C  0.78077771  0.35946565  0.02241678    -0.26970
C858        C  0.77949962  0.36501750  0.98468806    -0.15040
C859        C  0.75078046  0.37843286  0.96811182     0.35590
C860        C  0.72286123  0.38395237  0.98968903    -0.26410
C861        C  0.72381117  0.37743493  0.02726896    -0.15650
C862        C  0.75300633  0.36553528  0.04399589     0.36680
N863        N  0.75419397  0.35846177  0.08255604    -0.89900
H864        H  0.80302654  0.34948047  0.03499158     0.17790
H865        H  0.70049928  0.39388819  0.97732200     0.17780
N866        N  0.75031736  0.38689722  0.92968529    -0.88930
H867        H  0.77294597  0.37341072  0.09388936     0.35160
H868        H  0.76048463  0.33265062  0.08612575     0.40260
H869        H  0.76709689  0.40691429  0.92539463     0.39880
H870        H  0.72711125  0.39619782  0.92200973     0.34760
C871        C  0.50438062  0.15575254  0.90478505    -0.26970
C872        C  0.53312502  0.13654636  0.90964063    -0.15040
C873        C  0.53098430  0.10022717  0.90849067     0.35590
C874        C  0.49981027  0.08412809  0.90923130    -0.26410
C875        C  0.47086591  0.10357674  0.90767069    -0.15650
C876        C  0.47353653  0.13967526  0.90216376     0.36680
N877        N  0.44584907  0.16051029  0.89174957    -0.89900
H878        H  0.50593354  0.18342845  0.90242129     0.17790
H879        H  0.49812877  0.05647748  0.91167285     0.17780
N880        N  0.56029107  0.07974567  0.90570077    -0.88930
H881        H  0.44109760  0.17823593  0.91249037     0.35160
H882        H  0.42479177  0.14570135  0.88794362     0.40260
H883        H  0.57160133  0.08553315  0.88056893     0.39880
H884        H  0.55446991  0.05363229  0.90509196     0.34760
C885        C  0.61060505  0.14307772  0.76674313    -0.26970
C886        C  0.63203326  0.12603040  0.79083242    -0.15040
C887        C  0.65049653  0.09757821  0.77787966     0.35590
C888        C  0.64661318  0.08658715  0.74163062    -0.26410
C889        C  0.62587139  0.10405323  0.71732238    -0.15650
C890        C  0.60719927  0.13246624  0.73016732     0.36680
N891        N  0.58455091  0.15101593  0.70721187    -0.89900
H892        H  0.59628519  0.16478757  0.77640806     0.17790
H893        H  0.66148912  0.06540470  0.73160430     0.17780
N894        N  0.67431335  0.08082793  0.80099037    -0.88930
H895        H  0.56097799  0.14858076  0.71886533     0.35160
H896        H  0.58301878  0.14017984  0.68122359     0.40260
H897        H  0.69308277  0.09850785  0.80631607     0.39880
H898        H  0.68551446  0.06027035  0.78737665     0.34760
C899        C  0.72031499  0.25993984  0.87646028    -0.26970
C900        C  0.72252815  0.22456257  0.86903960    -0.15040
C901        C  0.75428461  0.21098462  0.86019672     0.35590
C902        C  0.78240464  0.23217912  0.86116774    -0.26410
C903        C  0.78011093  0.26728050  0.86936059    -0.15650
C904        C  0.74843226  0.28139497  0.87625695     0.36680
N905        N  0.74496207  0.31713359  0.88501387    -0.89900
H906        H  0.69645341  0.27103006  0.88305130     0.17790
H907        H  0.80643929  0.22096404  0.85560148     0.17780
N908        N  0.75915765  0.17578490  0.85043901    -0.88930
H909        H  0.72048454  0.32292444  0.89201571     0.35160
H910        H  0.75022815  0.33115169  0.86121014     0.40260
H911        H  0.74509324  0.17047404  0.82722010     0.39880
H912        H  0.75138561  0.16014872  0.87211503     0.34760
C913        C  0.65502426  0.99764531  0.99148419    -0.26970
C914        C  0.62635112  0.49479914  0.01340716    -0.15040
C915        C  0.59950889  0.01673285  0.00683464     0.35590
C916        C  0.60243459  0.04202671  0.97960512    -0.26410
C917        C  0.63179462  0.04632418  0.95878111    -0.15650
C918        C  0.65822803  0.02326980  0.96447242     0.36680
N919        N  0.68829006  0.02594540  0.94340010    -0.89900
H920        H  0.67543694  0.48013986  0.99604143     0.17790
H921        H  0.58174731  0.05924540  0.97558287     0.17780
N922        N  0.56929335  0.51308822  0.02748822    -0.88930
H923        H  0.70404840  0.00538611  0.94921845     0.35160
H924        H  0.70069996  0.04789950  0.95206530     0.40260
H925        H  0.55909174  0.48927810  0.02093078     0.39880
H926        H  0.55203380  0.53160902  0.01952906     0.34760
C927        C  0.59780216  0.29137435  0.02652298    -0.26970
C928        C  0.62660271  0.29710047  0.04743564    -0.15040
C929        C  0.65481521  0.27672036  0.03996500     0.35590
C930        C  0.65329856  0.25135370  0.01260215    -0.26410
C931        C  0.62480635  0.24640986  0.99131309    -0.15650
C932        C  0.59668048  0.26650694  0.99856455     0.36680
N933        N  0.56698696  0.26130623  0.97792626    -0.89900
H934        H  0.57610716  0.30697988  0.03140524     0.17790
H935        H  0.67490891  0.23563076  0.00727473     0.17780
N936        N  0.68523865  0.28228096  0.05918714    -0.88930
H937        H  0.54868593  0.27870679  0.98595310     0.35160
H938        H  0.55806191  0.23682822  0.98430561     0.40260
H939        H  0.69492252  0.30567330  0.05008292     0.39880
H940        H  0.70276322  0.26370011  0.05202494     0.34760
C941        C  0.99529128  0.08618142  0.09826855    -0.26970
C942        C  0.96665808  0.10618913  0.09515277    -0.15040
C943        C  0.96999753  0.14256682  0.09523610     0.35590
C944        C  0.00133497  0.15772050  0.09484430    -0.26410
C945        C  0.02985964  0.13765117  0.09502047    -0.15650
C946        C  0.02686553  0.10163321  0.09880559     0.36680
N947        N  0.05587039  0.08084668  0.10309010    -0.89900
H948        H  0.99312826  0.05849511  0.09914891     0.17790
H949        H  0.00339272  0.18542357  0.09369939     0.17780
N950        N  0.94199735  0.16499675  0.09632479    -0.88930
H951        H  0.04924849  0.05512576  0.10653476     0.35160
H952        H  0.06728344  0.08819321  0.12745381     0.40260
H953        H  0.92647132  0.15739100  0.11789994     0.39880
H954        H  0.92937270  0.16346178  0.07155200     0.34760
C955        C  0.87327048  0.09555380  0.28081125    -0.26970
C956        C  0.87748589  0.13057018  0.28881857    -0.15040
C957        C  0.88228971  0.15383393  0.25932349     0.35590
C958        C  0.88104923  0.14169491  0.22297940    -0.26410
C959        C  0.87482395  0.10704054  0.21532579    -0.15650
C960        C  0.87114118  0.08360574  0.24483747     0.36680
N961        N  0.86251451  0.04812279  0.23995533    -0.89900
H962        H  0.86955936  0.07715475  0.30279103     0.17790
H963        H  0.88386615  0.15960552  0.20037626     0.17780
N964        N  0.88766513  0.18969235  0.26601471    -0.88930
H965        H  0.88292390  0.03328024  0.24747351     0.35160
H966        H  0.85669375  0.04211382  0.21298150     0.40260
H967        H  0.86531299  0.20003271  0.27537877     0.39880
H968        H  0.89321656  0.20255998  0.24153963     0.34760
C969        C  0.74372842  0.02920874  0.14137551    -0.26970
C970        C  0.77531778  0.01382463  0.14036950    -0.15040
C971        C  0.77685074  0.47742721  0.14151966     0.35590
C972        C  0.74724005  0.45787238  0.14233465    -0.26410
C973        C  0.71581923  0.47347607  0.14112355    -0.15650
C974        C  0.71431160  0.00974007  0.14158744     0.36680
N975        N  0.68282420  0.02689300  0.14172756    -0.89900
H976        H  0.74176751  0.05691019  0.14089865     0.17790
H977        H  0.74879368  0.43013584  0.14186837     0.17780
N978        N  0.80825840  0.46017829  0.14065345    -0.88930
H979        H  0.68586863  0.05351753  0.14139232     0.35160
H980        H  0.67094627  0.52081128  0.16645138     0.40260
H981        H  0.81873997  0.46435884  0.11475961     0.39880
H982        H  0.80508989  0.43365778  0.14311377     0.34760
C983        C  0.90415942  0.48392485  0.99117179    -0.26970
C984        C  0.87822383  0.48882981  0.01640351    -0.15040
C985        C  0.84745546  0.47233892  0.00985825     0.35590
C986        C  0.84473706  0.44953144  0.98032700    -0.26410
C987        C  0.87146710  0.44309576  0.95657738    -0.15650
C988        C  0.90104633  0.46144333  0.96137496     0.36680
N989        N  0.92797372  0.45696759  0.93609876    -0.89900
H990        H  0.92725808  0.49745802  0.99500224     0.17790
H991        H  0.82175301  0.43570053  0.97680408     0.17780
N992        N  0.81808040  0.47866864  0.03123402    -0.88930
H993        H  0.94771485  0.47280854  0.94323019     0.35160
H994        H  0.91997979  0.46526747  0.91035411     0.40260
H995        H  0.82071430  0.99873447  0.04968661     0.39880
H996        H  0.81270495  0.45640655  0.04616855     0.34760
C997        C  0.84284742  0.19083788  0.00611351    -0.26970
C998        C  0.85701894  0.18967836  0.04130950    -0.15040
C999        C  0.87656907  0.21787125  0.05260408     0.35590
C1000       C  0.88381951  0.24416740  0.02707402    -0.26410
C1001       C  0.87186960  0.24321526  0.99089021    -0.15650
C1002       C  0.85015391  0.21674384  0.98104782     0.36680
N1003       N  0.83428507  0.21591630  0.94612236    -0.89900
H1004       H  0.82672641  0.17034468  0.99724937     0.17790
H1005       H  0.89900150  0.26555937  0.03556305     0.17780
N1006       N  0.88994571  0.22069523  0.08884118    -0.88930
H1007       H  0.85239871  0.21541848  0.92557523     0.35160
H1008       H  0.82006485  0.23815310  0.94343116     0.40260
H1009       H  0.88159058  0.20100072  0.10583507     0.39880
H1010       H  0.88068552  0.24331438  0.10031776     0.34760
C1011       C  0.78548097  0.10615113  0.98151718    -0.26970
C1012       C  0.78053292  0.08270635  0.00996092    -0.15040
C1013       C  0.74852167  0.07500575  0.02251345     0.35590
C1014       C  0.72173099  0.09275473  0.00765225    -0.26410
C1015       C  0.72682320  0.11848988  0.98115840    -0.15650
C1016       C  0.75918667  0.12547207  0.96818156     0.36680
N1017       N  0.76548433  0.15303273  0.94274940    -0.89900
H1018       H  0.81049354  0.11264572  0.97315053     0.17790
H1019       H  0.69693351  0.08653925  0.01689778     0.17780
N1020       N  0.74382796  0.05079828  0.05190705    -0.88930
H1021       H  0.79058963  0.15441694  0.93590303     0.35160
H1022       H  0.75952244  0.17600183  0.95596126     0.40260
H1023       H  0.75181722  0.02684978  0.04254392     0.39880
H1024       H  0.71871625  0.04830638  0.05834984     0.34760
O1025       O  0.92512415  0.56140343  0.10428961    -0.86000
O1026       O  0.88443643  0.57121297  0.16396088    -0.83040
C1027       C  0.86912306  0.59668759  0.17694821     0.97460
O1028       O  0.84782844  0.61284939  0.15861885    -0.83080
O1029       O  0.85256051  0.64955244  0.09325618    -0.85720
C1030       C  0.85605892  0.65536228  0.05936041     1.01990
O1031       O  0.85733103  0.63042633  0.03807758    -0.78480
O1032       O  0.91532418  0.60466532  0.06600142    -0.78670
C1033       C  0.93393446  0.58976429  0.08869444     1.01940
O1034       O  0.87141481  0.51051498  0.07775065    -0.85990
O1035       O  0.83449873  0.52476888  0.13556488    -0.83060
C1036       C  0.80524038  0.53654950  0.13421252     0.97480
O1037       O  0.80027825  0.56762721  0.12591783    -0.83090
O1038       O  0.80475225  0.60160887  0.06254585    -0.85690
C1039       C  0.80726573  0.58113861  0.03562856     1.01960
O1040       O  0.83381292  0.56539033  0.02783542    -0.78510
O1041       O  0.89879069  0.54088068  0.03996282    -0.78660
C1042       C  0.88346581  0.51392471  0.04634588     1.01920
Cr1043     Cr  0.87818459  0.54445363  0.11832901     1.93740
Cr1044     Cr  0.82915964  0.60588465  0.10911270     1.93210
Cr1045     Cr  0.87522974  0.58458464  0.04681572     1.39100
O1046       O  0.86078626  0.57849506  0.09251580    -1.23750
O1047       O  0.63171609  0.66949109  0.83763982    -0.86000
O1048       O  0.57990260  0.66622779  0.88585825    -0.83040
C1049       C  0.56522277  0.65451514  0.91377316     0.97460
O1050       O  0.57820262  0.65784000  0.94515568    -0.83080
O1051       O  0.61292460  0.60021741  0.94033646    -0.85720
C1052       C  0.63524848  0.57841630  0.93686925     1.01990
O1053       O  0.66164348  0.58694084  0.92015457    -0.78480
O1054       O  0.64423388  0.61673084  0.85322898    -0.78670
C1055       C  0.63550181  0.63801468  0.82920100     1.01940
O1056       O  0.66612756  0.71522110  0.88798298    -0.85990
O1057       O  0.61083562  0.71855295  0.93372690    -0.83060
C1058       C  0.62439727  0.71719724  0.96522184     0.97480
O1059       O  0.63745394  0.68990369  0.97596589    -0.83090
O1060       O  0.66913568  0.62872289  0.97565288    -0.85690
C1061       C  0.69803010  0.63340194  0.96295552     1.01960
O1062       O  0.70204709  0.64607441  0.93172517    -0.78510
O1063       O  0.69194228  0.67136054  0.86409394    -0.78660
C1064       C  0.69205830  0.70266014  0.87368923     1.01920
Cr1065     Cr  0.62302500  0.69047340  0.88793950     1.93740
Cr1066     Cr  0.62532445  0.64533470  0.95650973     1.93210
Cr1067     Cr  0.67256334  0.63175433  0.89320139     1.39100
O1068       O  0.64035624  0.65597964  0.91261565    -1.23750
O1069       O  0.87297122  0.81770459  0.83768071    -0.86960
O1070       O  0.92472600  0.81857257  0.88515581    -0.83040
C1071       C  0.93973485  0.83091895  0.91218380     0.97460
O1072       O  0.92656615  0.83049854  0.94369705    -0.83080
O1073       O  0.89323841  0.89060596  0.93666806    -0.85720
C1074       C  0.87036265  0.91196376  0.93345816     1.01990
O1075       O  0.84401527  0.90296470  0.91759938    -0.78480
O1076       O  0.86196282  0.87162625  0.85063293    -0.78670
C1077       C  0.87048441  0.84895508  0.82797122     1.01940
O1078       O  0.83619756  0.77457620  0.88832413    -0.85990
O1079       O  0.88972022  0.76946790  0.93418888    -0.83060
C1080       C  0.87727819  0.77284029  0.96616713     0.97480
O1081       O  0.86832235  0.80163044  0.97757013    -0.83090
O1082       O  0.83686416  0.86211762  0.97430915    -0.85690
C1083       C  0.80801056  0.85643713  0.96256840     1.01960
O1084       O  0.80316373  0.84549836  0.93086724    -0.78510
O1085       O  0.81209276  0.81917632  0.86382996    -0.78660
C1086       C  0.81099213  0.78798936  0.87387886     1.01920
Cr1087     Cr  0.88020570  0.79728078  0.88807044     1.93740
Cr1088     Cr  0.88036413  0.84523305  0.95496133     1.93210
Cr1089     Cr  0.83296553  0.85824379  0.89168840     1.39100
O1090       O  0.86446482  0.83331934  0.91176996    -1.23750
O1091       O  0.57291668  0.91895697  0.11718520    -0.86000
O1092       O  0.62240168  0.92215906  0.16851353    -0.83040
C1093       C  0.62384952  0.89097444  0.17865180     0.97460
O1094       O  0.63247587  0.86805968  0.15636267    -0.83080
O1095       O  0.65302465  0.83601831  0.09044724    -0.85720
C1096       C  0.62787462  0.82828474  0.07134322     1.01990
O1097       O  0.60597204  0.85052106  0.06700597    -0.78480
O1098       O  0.57554139  0.91155188  0.05806592    -0.78670
C1099       C  0.55998076  0.90811097  0.08806158     1.01940
O1100       O  0.60850150  0.96878864  0.07044397    -0.85990
O1101       O  0.66062973  0.96479188  0.11922464    -0.83060
C1102       C  0.68531454  0.95195475  0.13547712     0.97480
O1103       O  0.68424877  0.92063192  0.14585138    -0.83090
O1104       O  0.69708724  0.89248561  0.08112269    -0.85690
C1105       C  0.69413667  0.88307494  0.04864049     1.01960
O1106       O  0.66607356  0.87711777  0.03495161    -0.78510
O1107       O  0.63764072  0.93872751  0.03136595    -0.78660
C1108       C  0.62424848  0.96640955  0.04018628     1.01920
Cr1109     Cr  0.61691496  0.94168240  0.11744181     1.93740
Cr1110     Cr  0.66424292  0.88068573  0.11751722     1.93210
Cr1111     Cr  0.62194222  0.89524323  0.05070750     1.39100
O1112       O  0.63456545  0.90600383  0.09515378    -1.23750
O1113       O  0.92587722  0.67174473  0.38624594    -0.86000
O1114       O  0.87455254  0.67301416  0.33703315    -0.83040
C1115       C  0.87351208  0.64162084  0.32778786     0.97460
O1116       O  0.86628976  0.61929040  0.35154563    -0.83080
O1117       O  0.85043930  0.58735105  0.41888981    -0.85720
C1118       C  0.87680520  0.58144129  0.43662962     1.01990
O1119       O  0.89779552  0.60462828  0.43954325    -0.78480
O1120       O  0.92600051  0.66656824  0.44553312    -0.78670
C1121       C  0.94030326  0.66184403  0.41500678     1.01940
O1122       O  0.89055161  0.72204979  0.43347568    -0.85990
O1123       O  0.83632891  0.71554130  0.38697234    -0.83060
C1124       C  0.81121499  0.70081487  0.37356834     0.97480
O1125       O  0.81335132  0.66949719  0.36386416    -0.83090
O1126       O  0.80435342  0.64155423  0.42988101    -0.85690
C1127       C  0.80914245  0.63245454  0.46224513     1.01960
O1128       O  0.83795148  0.62872404  0.47488978    -0.78510
O1129       O  0.86401382  0.69180854  0.47487286    -0.78660
C1130       C  0.87643758  0.71964621  0.46477979     1.01920
Cr1131     Cr  0.88112555  0.69366633  0.38749442     1.93740
Cr1132     Cr  0.83601770  0.63102852  0.39182904     1.93210
Cr1133     Cr  0.88057884  0.64862014  0.45589922     1.39100
O1134       O  0.86551096  0.65800338  0.41188785    -1.23750
O1135       O  0.62807771  0.56341343  0.66859792    -0.86000
O1136       O  0.57671158  0.56452232  0.61931293    -0.83040
C1137       C  0.56192978  0.57364916  0.59048289     0.97460
O1138       O  0.57657010  0.57099534  0.55985633    -0.83080
O1139       O  0.60484196  0.63330130  0.56620003    -0.85720
C1140       C  0.62568608  0.65651512  0.57071416     1.01990
O1141       O  0.65191757  0.64976063  0.58837131    -0.78480
O1142       O  0.63571468  0.61763884  0.65520552    -0.78670
C1143       C  0.62854210  0.59470381  0.67821885     1.01940
O1144       O  0.66630815  0.52176657  0.61835323    -0.85990
O1145       O  0.61241935  0.51510863  0.57213691    -0.83060
C1146       C  0.62616404  0.51765180  0.54069532     0.97480
O1147       O  0.63850093  0.54557374  0.53055815    -0.83090
O1148       O  0.66478397  0.60903499  0.53165805    -0.85690
C1149       C  0.69352991  0.60540916  0.54454366     1.01960
O1150       O  0.69821220  0.59609800  0.57689352    -0.78510
O1151       O  0.68892453  0.56741042  0.64260589    -0.78660
C1152       C  0.69117066  0.53620740  0.63252743     1.01920
Cr1153     Cr  0.62157254  0.54325685  0.61807005     1.93740
Cr1154     Cr  0.62209325  0.58897198  0.55003491     1.93210
Cr1155     Cr  0.66625704  0.60609089  0.61487539     1.39100
O1156       O  0.63692062  0.57929010  0.59416752    -1.23750
O1157       O  0.57487110  0.81732684  0.38704938    -0.86000
O1158       O  0.62636093  0.81546809  0.33755031    -0.83040
C1159       C  0.63035283  0.84704455  0.32936726     0.97460
O1160       O  0.63965605  0.86786817  0.35338872    -0.83080
O1161       O  0.65957814  0.89642883  0.42009054    -0.85720
C1162       C  0.63351743  0.90597217  0.43672543     1.01990
O1163       O  0.61026326  0.88509839  0.43981454    -0.78480
O1164       O  0.57456664  0.82701221  0.44614253    -0.78670
C1165       C  0.56063781  0.82918985  0.41523443     1.01940
O1166       O  0.60737733  0.76510316  0.43334807    -0.85990
O1167       O  0.66226238  0.76877306  0.38710483    -0.83060
C1168       C  0.68806760  0.78157093  0.37265266     0.97480
O1169       O  0.68703494  0.81264447  0.36223825    -0.83090
O1170       O  0.69884205  0.83651423  0.42981327    -0.85690
C1171       C  0.69487385  0.84715531  0.46182379     1.01960
O1172       O  0.66631355  0.85345985  0.47465948    -0.78510
O1173       O  0.63270548  0.79415359  0.47615305    -0.78660
C1174       C  0.62072505  0.76662809  0.46482175     1.01920
Cr1175     Cr  0.61868172  0.79360932  0.38782227     1.93740
Cr1176     Cr  0.66872349  0.85188274  0.39233395     1.93210
Cr1177     Cr  0.62177545  0.83899522  0.45621680     1.39100
O1178       O  0.63635551  0.82795207  0.41226990    -1.23750
O1179       O  0.87462308  0.92278592  0.66750279    -0.86000
O1180       O  0.92610398  0.91879341  0.61862612    -0.83040
C1181       C  0.94041610  0.90648596  0.59077974     0.97460
O1182       O  0.92690967  0.90884623  0.55969884    -0.83080
O1183       O  0.89285309  0.85057870  0.56802443    -0.85720
C1184       C  0.87022232  0.82912547  0.57122668     1.01990
O1185       O  0.84409937  0.83794807  0.58824129    -0.78480
O1186       O  0.86264306  0.86936052  0.65412886    -0.78670
C1187       C  0.87160094  0.89148247  0.67699115     1.01940
O1188       O  0.83879158  0.96699615  0.61640106    -0.85990
O1189       O  0.89395291  0.96937266  0.56985781    -0.83060
C1190       C  0.88154200  0.96673457  0.53792164     0.97480
O1191       O  0.86804967  0.93933900  0.52861889    -0.83090
O1192       O  0.83610176  0.87906000  0.53174335    -0.85690
C1193       C  0.80734129  0.88465022  0.54433117     1.01960
O1194       O  0.80293643  0.89593304  0.57602642    -0.78510
O1195       O  0.81404420  0.92327941  0.64232124    -0.78660
C1196       C  0.81316232  0.95429792  0.63138858     1.01920
Cr1197     Cr  0.88244731  0.94256331  0.61655612     1.93740
Cr1198     Cr  0.88007778  0.89543228  0.54987801     1.93210
Cr1199     Cr  0.83344053  0.88313295  0.61424078     1.39100
O1200       O  0.86513981  0.90732185  0.59337642    -1.23750
O1201       O  0.07670853  0.66587789  0.11960299    -0.86000
O1202       O  0.12806247  0.66884647  0.16822685    -0.83040
C1203       C  0.13098875  0.63742557  0.17722740     0.97460
O1204       O  0.13991523  0.61551982  0.15381516    -0.83080
O1205       O  0.16105451  0.58675290  0.08520492    -0.85720
C1206       C  0.13590766  0.57760284  0.06674839     1.01990
O1207       O  0.11276043  0.59851698  0.06261274    -0.78480
O1208       O  0.07660870  0.65648362  0.06025053    -0.78670
C1209       C  0.06261370  0.65434907  0.09146337     1.01940
O1210       O  0.10824078  0.71886079  0.07321460    -0.85990
O1211       O  0.16297280  0.71495157  0.11844996    -0.83060
C1212       C  0.18870861  0.70259619  0.13296222     0.97480
O1213       O  0.18826651  0.67136142  0.14354710    -0.83090
O1214       O  0.20080138  0.64733573  0.07790720    -0.85690
C1215       C  0.19777026  0.63731990  0.04585859     1.01960
O1216       O  0.16948611  0.63265448  0.03200945    -0.78510
O1217       O  0.13593553  0.69110260  0.03126881    -0.78660
C1218       C  0.12316102  0.71828048  0.04241507     1.01920
Cr1219     Cr  0.11990613  0.69006454  0.11832895     1.93740
Cr1220     Cr  0.16974996  0.63147178  0.11421490     1.93210
Cr1221     Cr  0.12437838  0.64572361  0.04954944     1.39100
O1222       O  0.13778487  0.65558827  0.09402108    -1.23750
O1223       O  0.38918053  0.56812278  0.84095697    -0.86000
O1224       O  0.42849374  0.55963070  0.90191479    -0.83040
C1225       C  0.43849626  0.58765210  0.91678986     0.97460
O1226       O  0.42116346  0.60340528  0.94024764    -0.83080
O1227       O  0.36535536  0.63620519  0.96339729    -0.85720
C1228       C  0.37100508  0.65879654  0.94008661     1.01990
O1229       O  0.36581016  0.65219891  0.90656400    -0.78480
O1230       O  0.35639246  0.61292883  0.84408174    -0.78670
C1231       C  0.37660328  0.59466305  0.82672317     1.01940
O1232       O  0.33627946  0.52741911  0.87414013    -0.85990
O1233       O  0.37256779  0.51309444  0.93244670    -0.83060
C1234       C  0.38442513  0.51621835  0.96391607     0.97480
O1235       O  0.39822789  0.54364881  0.97144545    -0.83090
O1236       O  0.33372818  0.57537864  0.97701896    -0.85690
C1237       C  0.30993641  0.59441688  0.96641446     1.01960
O1238       O  0.31289529  0.61445582  0.93945240    -0.78510
O1239       O  0.30475080  0.57338658  0.88100752    -0.78660
C1240       C  0.30789236  0.54130548  0.87545235     1.01920
Cr1241     Cr  0.38103443  0.54483290  0.88938758     1.93740
Cr1242     Cr  0.37843943  0.58844781  0.95901028     1.93210
Cr1243     Cr  0.33739613  0.61083904  0.89375636     1.39100
O1244       O  0.36565695  0.58127574  0.91303138    -1.23750
O1245       O  0.13017352  0.91975985  0.83675525    -0.86000
O1246       O  0.07716963  0.91750862  0.88261514    -0.83040
C1247       C  0.06147674  0.90544943  0.90960721     0.97460
O1248       O  0.07319129  0.90740477  0.94148322    -0.83080
O1249       O  0.10777972  0.84873513  0.93552100    -0.85720
C1250       C  0.13116138  0.82788303  0.93509578     1.01990
O1251       O  0.15835104  0.83734762  0.92050840    -0.78480
O1252       O  0.14261056  0.86685473  0.85203495    -0.78670
C1253       C  0.13317266  0.88817890  0.82825196     1.01940
O1254       O  0.16365066  0.96530938  0.88842011    -0.85990
O1255       O  0.10781364  0.96883076  0.93227947    -0.83060
C1256       C  0.11852331  0.96578171  0.96499228     0.97480
O1257       O  0.12904923  0.93768157  0.97660511    -0.83090
O1258       O  0.16247313  0.87873237  0.97519747    -0.85690
C1259       C  0.19138023  0.88696893  0.96490883     1.01960
O1260       O  0.19681473  0.89739197  0.93292251    -0.78510
O1261       O  0.19017863  0.92190288  0.86431471    -0.78660
C1262       C  0.18965932  0.95325744  0.87395766     1.01920
Cr1263     Cr  0.12043851  0.94095933  0.88665546     1.93740
Cr1264     Cr  0.11912843  0.89397247  0.95424768     1.93210
Cr1265     Cr  0.16947509  0.88222423  0.89323020     1.39100
O1266       O  0.13640762  0.90608470  0.91155992    -1.23750
O1267       O  0.42521513  0.81719542  0.11736687    -0.86000
O1268       O  0.37376924  0.81380266  0.16686704    -0.83040
C1269       C  0.37034900  0.84495271  0.17682663     0.97460
O1270       O  0.36140315  0.86747281  0.15420735    -0.83080
O1271       O  0.34510925  0.90016317  0.08836427    -0.85720
C1272       C  0.37226903  0.90923163  0.07338933     1.01990
O1273       O  0.39461265  0.88735774  0.06985114    -0.78480
O1274       O  0.42582450  0.82682287  0.05843104    -0.78670
C1275       C  0.44015333  0.82768867  0.08900380     1.01940
O1276       O  0.39134775  0.76876730  0.06771642    -0.85990
O1277       O  0.33725715  0.77078238  0.11545192    -0.83060
C1278       C  0.31169427  0.78335057  0.13054657     0.97480
O1279       O  0.31220150  0.81451174  0.14089673    -0.83090
O1280       O  0.30345969  0.84219522  0.07464459    -0.85690
C1281       C  0.30803687  0.85377392  0.04302005     1.01960
O1282       O  0.33673915  0.86199990  0.03220954    -0.78510
O1283       O  0.36639185  0.80112963  0.02728525    -0.78660
C1284       C  0.37885979  0.77293657  0.03585996     1.01920
Cr1285     Cr  0.38110287  0.79458421  0.11545790     1.93740
Cr1286     Cr  0.33293312  0.85470098  0.11358468     1.93210
Cr1287     Cr  0.38001166  0.84349815  0.04990837     1.39100
O1288       O  0.36457831  0.83061580  0.09297569    -1.23750
O1289       O  0.07376464  0.56751652  0.38944070    -0.86000
O1290       O  0.12483967  0.56403457  0.33863798    -0.83040
C1291       C  0.12843477  0.59529746  0.32923596     0.97460
O1292       O  0.13716021  0.61715548  0.35252942    -0.83080
O1293       O  0.15387506  0.64801327  0.41939214    -0.85720
C1294       C  0.12738030  0.65529338  0.43677998     1.01990
O1295       O  0.10540533  0.63310055  0.43990746    -0.78480
O1296       O  0.07500229  0.57236924  0.44857530    -0.78670
C1297       C  0.06018950  0.57782792  0.41877238     1.01940
O1298       O  0.10808495  0.51594395  0.43615325    -0.85990
O1299       O  0.16162147  0.51944285  0.38836435    -0.83060
C1300       C  0.18762228  0.53252902  0.37458873     0.97480
O1301       O  0.18690679  0.56380466  0.36426470    -0.83090
O1302       O  0.19713921  0.59056381  0.43045776    -0.85690
C1303       C  0.19304827  0.60124560  0.46240857     1.01960
O1304       O  0.16439445  0.60737819  0.47483059    -0.78510
O1305       O  0.13592926  0.54514946  0.47655300    -0.78660
C1306       C  0.12252186  0.51768810  0.46711680     1.01920
Cr1307     Cr  0.11784407  0.54360727  0.38952472     1.93740
Cr1308     Cr  0.16638280  0.60347141  0.39252445     1.93210
Cr1309     Cr  0.12097805  0.58878960  0.45718987     1.39100
O1310       O  0.13531659  0.57841522  0.41306052    -1.23750
O1311       O  0.37560091  0.66847743  0.66589085    -0.86000
O1312       O  0.42762748  0.66598200  0.61668991    -0.83040
C1313       C  0.44204183  0.65522297  0.58811616     0.97460
O1314       O  0.42809485  0.65915785  0.55758471    -0.83080
O1315       O  0.39567391  0.59851938  0.56613610    -0.85720
C1316       C  0.37279325  0.57706919  0.56891734     1.01990
O1317       O  0.34598760  0.58623035  0.58439858    -0.78480
O1318       O  0.36167764  0.61608548  0.65120956    -0.78670
C1319       C  0.37175993  0.63697385  0.67476302     1.01940
O1320       O  0.34018498  0.71448456  0.61520893    -0.85990
O1321       O  0.39450113  0.71752652  0.56861983    -0.83060
C1322       C  0.38109369  0.71497428  0.53710495     0.97480
O1323       O  0.36921170  0.68703834  0.52698592    -0.83090
O1324       O  0.33923259  0.62615651  0.52844301    -0.85690
C1325       C  0.31036216  0.63402080  0.53886135     1.01960
O1326       O  0.30509041  0.64483223  0.57068384    -0.78510
O1327       O  0.31367111  0.67056728  0.63830642    -0.78660
C1328       C  0.31384112  0.70193133  0.62854529     1.01920
Cr1329     Cr  0.38364443  0.68970734  0.61516696     1.93740
Cr1330     Cr  0.38223657  0.64348489  0.54775797     1.93210
Cr1331     Cr  0.33403638  0.63092662  0.61030556     1.39100
O1332       O  0.36652652  0.65495758  0.59109049    -1.23750
O1333       O  0.12923463  0.81149614  0.66712927    -0.86000
O1334       O  0.07631508  0.81579464  0.62064119    -0.83040
C1335       C  0.06102279  0.82724862  0.59316887     0.97460
O1336       O  0.07392590  0.82463590  0.56169062    -0.83080
O1337       O  0.10528745  0.88431545  0.57064858    -0.85720
C1338       C  0.12706266  0.90669686  0.57283968     1.01990
O1339       O  0.15419939  0.89897305  0.58816229    -0.78480
O1340       O  0.13921702  0.86554504  0.65470245    -0.78670
C1341       C  0.13140438  0.84256318  0.67742904     1.01940
O1342       O  0.16430946  0.76946592  0.61392788    -0.85990
O1343       O  0.10888985  0.76659270  0.56946387    -0.83060
C1344       C  0.12122747  0.77005108  0.53729947     0.97480
O1345       O  0.13315686  0.79823199  0.52777299    -0.83090
O1346       O  0.16236793  0.85964694  0.53019869    -0.85690
C1347       C  0.19146929  0.85371554  0.54106792     1.01960
O1348       O  0.19699581  0.84298674  0.57279917    -0.78510
O1349       O  0.18967294  0.81333326  0.63839812    -0.78660
C1350       C  0.19018613  0.78219598  0.62770874     1.01920
Cr1351     Cr  0.12038710  0.79279573  0.61627919     1.93740
Cr1352     Cr  0.11966538  0.84091176  0.55034140     1.93210
Cr1353     Cr  0.16754273  0.85370793  0.61274927     1.39100
O1354       O  0.13624378  0.82877823  0.59289349    -1.23750
O1355       O  0.42406528  0.91807176  0.38285528    -0.86000
O1356       O  0.37074240  0.92039078  0.33661651    -0.83040
C1357       C  0.36940044  0.88905139  0.32736040     0.97460
O1358       O  0.36257086  0.86633937  0.35069275    -0.83080
O1359       O  0.34935811  0.83456792  0.41817172    -0.85720
C1360       C  0.37658790  0.82732744  0.43366575     1.01990
O1361       O  0.39771306  0.85038121  0.43702841    -0.78480
O1362       O  0.42692195  0.91221446  0.44219749    -0.78670
C1363       C  0.43976492  0.90843176  0.41084174     1.01940
O1364       O  0.39123787  0.96852274  0.43218928    -0.85990
O1365       O  0.33523974  0.96308898  0.38849201    -0.83060
C1366       C  0.30952176  0.94906269  0.37565848     0.97480
O1367       O  0.31075388  0.91759764  0.36621582    -0.83090
O1368       O  0.30464563  0.88931171  0.43263378    -0.85690
C1369       C  0.31066653  0.88016596  0.46480912     1.01960
O1370       O  0.33994578  0.87531866  0.47558548    -0.78510
O1371       O  0.36705877  0.93791924  0.47506440    -0.78660
C1372       C  0.37907419  0.96580042  0.46443670     1.01920
Cr1373     Cr  0.37971216  0.94055056  0.38665089     1.93740
Cr1374     Cr  0.33424736  0.87854134  0.39269239     1.93210
Cr1375     Cr  0.38186383  0.89467979  0.45455328     1.39100
O1376       O  0.36492091  0.90483844  0.41148672    -1.23750
C1377       C  0.24511895  0.83560676  0.51951850    -0.26970
C1378       C  0.22015524  0.86051239  0.51832675    -0.15040
C1379       C  0.22633560  0.89286592  0.50207659     0.35590
C1380       C  0.25739740  0.89897927  0.48709952    -0.26410
C1381       C  0.28237725  0.87407657  0.48839862    -0.15650
C1382       C  0.27642082  0.84205358  0.50543891     0.36680
N1383       N  0.30055017  0.81506532  0.50807551    -0.89900
H1384       H  0.24048379  0.81103335  0.53266112     0.17790
H1385       H  0.26201806  0.92345631  0.47375287     0.17780
N1386       N  0.20285052  0.92058441  0.50144789    -0.88930
H1387       H  0.30409981  0.80979021  0.53590272     0.35160
H1388       H  0.32347613  0.82247915  0.49796238     0.40260
H1389       H  0.18084566  0.91447679  0.51467213     0.39880
H1390       H  0.19705370  0.92559751  0.47405497     0.34760
C1391       C  0.25175914  0.70651572  0.63324674    -0.26970
C1392       C  0.28262502  0.72320588  0.63156298    -0.15040
C1393       C  0.28268251  0.75955379  0.62996953     0.35590
C1394       C  0.25238845  0.77790961  0.62987992    -0.26410
C1395       C  0.22152042  0.76116135  0.63055815    -0.15650
C1396       C  0.22147571  0.72478964  0.63210461     0.36680
N1397       N  0.19077268  0.70626504  0.63265114    -0.89900
H1398       H  0.25114700  0.67874659  0.63397284     0.17790
H1399       H  0.25294700  0.80565317  0.62825841     0.17780
N1400       N  0.31345046  0.77788216  0.62814164    -0.88930
H1401       H  0.19496657  0.68011454  0.63708073     0.35160
H1402       H  0.18059966  0.70816606  0.60645832     0.40260
H1403       H  0.32574721  0.77366551  0.65286639     0.39880
H1404       H  0.30929259  0.80430070  0.62625467     0.34760
C1405       C  0.40818875  0.76405612  0.50487160    -0.26970
C1406       C  0.38030308  0.74338769  0.51004998    -0.15040
C1407       C  0.35293222  0.74750218  0.48630129     0.35590
C1408       C  0.35374388  0.77290219  0.45890801    -0.26410
C1409       C  0.38088197  0.79492671  0.45490726    -0.15650
C1410       C  0.40892050  0.78942958  0.47740090     0.36680
N1411       N  0.43812088  0.80982991  0.47291855    -0.89900
H1412       H  0.42973112  0.76022339  0.52190736     0.17790
H1413       H  0.33211463  0.77677437  0.44203915     0.17780
N1414       N  0.32356896  0.72714977  0.49127936    -0.88930
H1415       H  0.45794624  0.79341494  0.46723475     0.35160
H1416       H  0.44283393  0.82215010  0.49774486     0.40260
H1417       H  0.32833974  0.70288298  0.48037730     0.39880
H1418       H  0.30408310  0.73717276  0.47588331     0.34760
C1419       C  0.40458435  0.53970110  0.52616564    -0.26970
C1420       C  0.37534521  0.54509801  0.54671931    -0.15040
C1421       C  0.34814271  0.52313129  0.54039287     0.35590
C1422       C  0.35031442  0.49822284  0.51299059    -0.26410
C1423       C  0.37892004  0.99420482  0.49122753    -0.15650
C1424       C  0.40690070  0.01458063  0.49888907     0.36680
N1425       N  0.43841477  0.00985673  0.48111806    -0.89900
H1426       H  0.42599061  0.55565631  0.53074857     0.17790
H1427       H  0.32902814  0.48197947  0.50830018     0.17780
N1428       N  0.31779281  0.52551653  0.56070668    -0.88930
H1429       H  0.44297434  0.03145926  0.46480268     0.35160
H1430       H  0.43892709  0.98847579  0.46411705     0.40260
H1431       H  0.32303090  0.52358391  0.58866058     0.39880
H1432       H  0.30654063  0.54908605  0.55524688     0.34760
C1433       C  0.27948667  0.50532779  0.36656083    -0.26970
C1434       C  0.27793353  0.96957981  0.37187388    -0.15040
C1435       C  0.24624648  0.95455668  0.37650145     0.35590
C1436       C  0.21750121  0.97543543  0.37642761    -0.26410
C1437       C  0.21898960  0.51128701  0.37138328    -0.15650
C1438       C  0.25073458  0.52620894  0.36616356     0.36680
N1439       N  0.25404612  0.56266281  0.36145249    -0.89900
H1440       H  0.30349883  0.51725730  0.36327657     0.17790
H1441       H  0.19363755  0.96347835  0.38078040     0.17780
N1442       N  0.24325817  0.91831402  0.38307502    -0.88930
H1443       H  0.27869115  0.56928124  0.35634817     0.35160
H1444       H  0.24767231  0.57413902  0.38635447     0.40260
H1445       H  0.24946059  0.90580624  0.35868396     0.39880
H1446       H  0.21871687  0.91174171  0.38885065     0.34760
C1447       C  0.13144518  0.71827053  0.44854669    -0.26970
C1448       C  0.12504950  0.68521615  0.46135272    -0.15040
C1449       C  0.11681931  0.68023331  0.49880531     0.35590
C1450       C  0.11527144  0.70819926  0.52267386    -0.26410
C1451       C  0.12173120  0.74149666  0.51023065    -0.15650
C1452       C  0.12953032  0.74645986  0.47222278     0.36680
N1453       N  0.13518214  0.77963753  0.45638013    -0.89900
H1454       H  0.13761377  0.72228622  0.41989099     0.17790
H1455       H  0.10955509  0.70357943  0.55133660     0.17780
N1456       N  0.11116398  0.64646489  0.51318070    -0.88930
H1457       H  0.15642613  0.79032694  0.46773661     0.35160
H1458       H  0.11467902  0.79524856  0.46167298     0.40260
H1459       H  0.08767944  0.64603691  0.52527556     0.39880
H1460       H  0.12841532  0.64183037  0.53382581     0.34760
C1461       C  0.10288441  0.93474427  0.51823482    -0.26970
C1462       C  0.12335196  0.93752362  0.54929030    -0.15040
C1463       C  0.14306890  0.96684391  0.55327784     0.35590
C1464       C  0.14247013  0.49227115  0.52586202    -0.26410
C1465       C  0.12274628  0.98900911  0.49416388    -0.15650
C1466       C  0.10282101  0.95967618  0.49040737     0.36680
N1467       N  0.08273796  0.95500429  0.45845260    -0.89900
H1468       H  0.08800788  0.91196214  0.51447665     0.17790
H1469       H  0.15787521  0.51471395  0.52927767     0.17780
N1470       N  0.16391079  0.97049005  0.58476068    -0.88930
H1471       H  0.06838838  0.93282193  0.46092084     0.35160
H1472       H  0.09871865  0.95089259  0.43624292     0.40260
H1473       H  0.14853599  0.97204845  0.60785547     0.39880
H1474       H  0.17709620  0.49350878  0.58340401     0.34760
C1475       C  0.25100040  0.58987352  0.47659943    -0.26970
C1476       C  0.22241863  0.60931295  0.48324545    -0.15040
C1477       C  0.22375745  0.63865569  0.50536081     0.35590
C1478       C  0.25350270  0.64739001  0.52167844    -0.26410
C1479       C  0.28194743  0.62751331  0.51577814    -0.15650
C1480       C  0.28104747  0.59894891  0.49223496     0.36680
N1481       N  0.31009029  0.57858114  0.48534664    -0.89900
H1482       H  0.24990885  0.56768598  0.45881799     0.17790
H1483       H  0.25426989  0.66961161  0.53945203     0.17780
N1484       N  0.19536729  0.66015895  0.51043377    -0.88930
H1485       H  0.30441147  0.55724243  0.46930141     0.35160
H1486       H  0.32640907  0.59351489  0.46973159     0.40260
H1487       H  0.20121891  0.68476447  0.50092997     0.39880
H1488       H  0.19039132  0.66177375  0.53853943     0.34760
C1489       C  0.34519214  0.87424876  0.22935234    -0.26970
C1490       C  0.37210247  0.85525714  0.21568948    -0.15040
C1491       C  0.39920141  0.84821120  0.23896065     0.35590
C1492       C  0.39820542  0.85994444  0.27539839    -0.26410
C1493       C  0.37131052  0.87919871  0.28857118    -0.15650
C1494       C  0.34450754  0.88628909  0.26543850     0.36680
N1495       N  0.31609167  0.90451806  0.27917409    -0.89900
H1496       H  0.32431476  0.87950201  0.21170914     0.17790
H1497       H  0.41868985  0.85430362  0.29344944     0.17780
N1498       N  0.42847148  0.83075858  0.22646416    -0.88930
H1499       H  0.29791250  0.90644723  0.25903665     0.35160
H1500       H  0.32349376  0.92957158  0.28501171     0.40260
H1501       H  0.42749470  0.82512361  0.19857695     0.39880
H1502       H  0.42989800  0.80742016  0.24056255     0.34760
C1503       C  0.13790332  0.84213442  0.78120664    -0.26970
C1504       C  0.12840661  0.87596250  0.78992966    -0.15040
C1505       C  0.11661368  0.89747797  0.76159655     0.35590
C1506       C  0.11665427  0.88543151  0.72525993    -0.26410
C1507       C  0.12765811  0.85220474  0.71651632    -0.15650
C1508       C  0.13797541  0.83015407  0.74494543     0.36680
N1509       N  0.15005896  0.79628226  0.73684449    -0.89900
H1510       H  0.14676363  0.82518560  0.80258612     0.17790
H1511       H  0.10846674  0.90231117  0.70345890     0.17780
N1512       N  0.10510227  0.93156308  0.76952638    -0.88930
H1513       H  0.15618381  0.78318800  0.76092634     0.35160
H1514       H  0.17203818  0.79896886  0.72185171     0.40260
H1515       H  0.08374419  0.92924111  0.78564994     0.39880
H1516       H  0.09805647  0.94420757  0.74548610     0.34760
C1517       C  0.25042742  0.89429503  0.97573981    -0.26970
C1518       C  0.22004115  0.88079356  0.98788658    -0.15040
C1519       C  0.21894738  0.85747358  0.01739868     0.35590
C1520       C  0.24852649  0.84757221  0.03346570    -0.26410
C1521       C  0.27892964  0.86083409  0.02102912    -0.15650
C1522       C  0.28002676  0.88372848  0.99117469     0.36680
N1523       N  0.31089604  0.89619816  0.97658615    -0.89900
H1524       H  0.25130041  0.91222692  0.95297009     0.17790
H1525       H  0.24768485  0.82970141  0.05628845     0.17780
N1526       N  0.18819369  0.84333191  0.03044815    -0.88930
H1527       H  0.30694941  0.91377103  0.95533699     0.35160
H1528       H  0.32320861  0.87533957  0.96479258     0.40260
H1529       H  0.17480492  0.86326644  0.04262510     0.39880
H1530       H  0.19223131  0.82511159  0.05105395     0.34760
C1531       C  0.38901238  0.64734240  0.73980364    -0.26970
C1532       C  0.37725528  0.62449864  0.71320807    -0.15040
C1533       C  0.36977217  0.59025526  0.72422914     0.35590
C1534       C  0.37348311  0.58038167  0.76113109    -0.26410
C1535       C  0.38311201  0.60388537  0.78785613    -0.15650
C1536       C  0.39186691  0.63763307  0.77681787     0.36680
N1537       N  0.40318117  0.66292854  0.80238470    -0.89900
H1538       H  0.39526378  0.67340705  0.73206236     0.17790
H1539       H  0.36618231  0.55479420  0.76962070     0.17780
N1540       N  0.35691529  0.56582616  0.69855387    -0.88930
H1541       H  0.42706958  0.67008728  0.79437733     0.35160
H1542       H  0.40542080  0.65258560  0.82860582     0.40260
H1543       H  0.33283268  0.57346472  0.69219020     0.39880
H1544       H  0.35479954  0.54153681  0.71058533     0.34760
C1545       C  0.22968192  0.99157992  0.90404364    -0.26970
C1546       C  0.22004703  0.97539112  0.87166510    -0.15040
C1547       C  0.24004829  0.98041879  0.83982069     0.35590
C1548       C  0.26825450  0.00211703  0.84142286    -0.26410
C1549       C  0.27743834  0.51885214  0.87401984    -0.15650
C1550       C  0.25799653  0.51220783  0.90595331     0.36680
N1551       N  0.26726249  0.52377787  0.94163336    -0.89900
H1552       H  0.21555758  0.98707466  0.92897353     0.17790
H1553       H  0.28300075  0.00606741  0.81686643     0.17780
N1554       N  0.23209581  0.96512800  0.80522392    -0.88930
H1555       H  0.24841188  0.53942602  0.95190103     0.35160
H1556       H  0.28888886  0.53797947  0.94042901     0.40260
H1557       H  0.21010089  0.95125220  0.80664023     0.39880
H1558       H  0.25092551  0.94773666  0.79876773     0.34760
C1559       C  0.40818968  0.98143573  0.01506383    -0.26970
C1560       C  0.38098932  0.98945056  0.99287432    -0.15040
C1561       C  0.34999722  0.97483734  0.00154034     0.35590
C1562       C  0.34724993  0.95111880  0.03060853    -0.26410
C1563       C  0.37491823  0.94113203  0.05110226    -0.15650
C1564       C  0.40569882  0.95713856  0.04346770     0.36680
N1565       N  0.43480006  0.94950726  0.06417929    -0.89900
H1566       H  0.43182960  0.99357382  0.00970267     0.17790
H1567       H  0.32355333  0.93920988  0.03619119     0.17780
N1568       N  0.32117990  0.98494960  0.98154309    -0.88930
H1569       H  0.44186488  0.92411608  0.05959022     0.35160
H1570       H  0.42933879  0.95265756  0.09202009     0.40260
H1571       H  0.31664325  0.51050759  0.98837870     0.39880
H1572       H  0.30046902  0.97119286  0.99053576     0.34760
C1573       C  0.40206067  0.71856202  0.01126152    -0.26970
C1574       C  0.37999262  0.74584604  0.00723425    -0.15040
C1575       C  0.36000489  0.74744190  0.97519206     0.35590
C1576       C  0.36136004  0.72067690  0.94938123    -0.26410
C1577       C  0.38133802  0.69203834  0.95532922    -0.15650
C1578       C  0.40296742  0.69169794  0.98586436     0.36680
N1579       N  0.42376943  0.66243297  0.99273309    -0.89900
H1580       H  0.41805575  0.71761793  0.03494332     0.17790
H1581       H  0.34419444  0.72048246  0.92670828     0.17780
N1582       N  0.33704284  0.77517918  0.96976835    -0.88930
H1583       H  0.43613515  0.66497125  0.01764644     0.35160
H1584       H  0.44206211  0.66196533  0.97245889     0.40260
H1585       H  0.31871307  0.77310154  0.99000930     0.39880
H1586       H  0.32506029  0.77286552  0.94459587     0.34760
C1587       C  0.10662790  0.60148899  0.22760951    -0.26970
C1588       C  0.12857916  0.62735246  0.21615626    -0.15040
C1589       C  0.14965055  0.64272519  0.24185558     0.35590
C1590       C  0.14811313  0.63234832  0.27859164    -0.26410
C1591       C  0.12647685  0.60632117  0.29035151    -0.15650
C1592       C  0.10513256  0.59099776  0.26470703     0.36680
N1593       N  0.08190115  0.56529502  0.27643067    -0.89900
H1594       H  0.09055052  0.58970542  0.20765128     0.17790
H1595       H  0.16493681  0.64385766  0.29797227     0.17780
N1596       N  0.17352539  0.66789918  0.23025060    -0.88930
H1597       H  0.06797119  0.55675642  0.25423166     0.35160
H1598       H  0.06530159  0.57693519  0.29464850     0.40260
H1599       H  0.19084753  0.65538548  0.21361930     0.39880
H1600       H  0.18660906  0.67731621  0.25267620     0.34760
C1601       C  0.25076740  0.70745173  0.13791123    -0.26970
C1602       C  0.21978694  0.72397268  0.13604729    -0.15040
C1603       C  0.21951726  0.76038820  0.13452377     0.35590
C1604       C  0.24965902  0.77886785  0.13477808    -0.26410
C1605       C  0.28059266  0.76226715  0.13504011    -0.15650
C1606       C  0.28092758  0.72596608  0.13696219     0.36680
N1607       N  0.31188065  0.70786028  0.13770876    -0.89900
H1608       H  0.25156031  0.67970816  0.13898140     0.17790
H1609       H  0.24893749  0.80660281  0.13299653     0.17780
N1610       N  0.18874831  0.77877099  0.13256263    -0.88930
H1611       H  0.30797222  0.68136475  0.13856095     0.35160
H1612       H  0.32372686  0.71430551  0.16210750     0.40260
H1613       H  0.17938305  0.77528527  0.10620527     0.39880
H1614       H  0.19271195  0.80514584  0.13511767     0.34760
C1615       C  0.10609283  0.52456175  0.04705218    -0.26970
C1616       C  0.13452492  0.54525035  0.04473309    -0.15040
C1617       C  0.15710068  0.53874470  0.01551448     0.35590
C1618       C  0.14997202  0.51425723  0.98888435    -0.26410
C1619       C  0.12104101  0.99498185  0.99038414    -0.15650
C1620       C  0.09966374  0.99877469  0.02086692     0.36680
N1621       N  0.07145235  0.97669281  0.02495153    -0.89900
H1622       H  0.08872864  0.52866325  0.06921365     0.17790
H1623       H  0.16749638  0.51010644  0.96670238     0.17780
N1624       N  0.18650689  0.55807319  0.01011326    -0.88930
H1625       H  0.05799833  0.98312619  0.04852542     0.35160
H1626       H  0.08018749  0.95173434  0.02907084     0.40260
H1627       H  0.19899374  0.56005510  0.03496374     0.39880
H1628       H  0.17929801  0.58190034  0.00022229     0.34760
C1629       C  0.15766952  0.78368971  0.97507742    -0.26970
C1630       C  0.12874588  0.79702302  0.95936806    -0.15040
C1631       C  0.09781334  0.78529583  0.97297603     0.35590
C1632       C  0.09638781  0.76125110  0.00179357    -0.26410
C1633       C  0.12525572  0.74818952  0.01741020    -0.15650
C1634       C  0.15628443  0.75941372  0.00379399     0.36680
N1635       N  0.18633238  0.74698028  0.02005665    -0.89900
H1636       H  0.18150831  0.79313971  0.96588229     0.17790
H1637       H  0.07255266  0.75190971  0.01117740     0.17780
N1638       N  0.06759802  0.79753123  0.95747864    -0.88930
H1639       H  0.20684026  0.75961442  0.00883434     0.35160
H1640       H  0.18902919  0.72115674  0.01309213     0.40260
H1641       H  0.05370368  0.80910981  0.97831121     0.39880
H1642       H  0.05438818  0.77630779  0.94814994     0.34760
C1643       C  0.22645542  0.62766970  0.98834096    -0.26970
C1644       C  0.22716996  0.62632916  0.02636108    -0.15040
C1645       C  0.25336742  0.60949519  0.04484541     0.35590
C1646       C  0.27912203  0.59529215  0.02430267    -0.26410
C1647       C  0.27896017  0.59799898  0.98625408    -0.15650
C1648       C  0.25149712  0.61278789  0.96787366     0.36680
N1649       N  0.24997912  0.61429488  0.92842189    -0.89900
H1650       H  0.20578956  0.63972981  0.97455100     0.17790
H1651       H  0.30026605  0.58418146  0.03806321     0.17780
N1652       N  0.25354579  0.60637947  0.08415319    -0.88930
H1653       H  0.22879046  0.62727010  0.91970128     0.35160
H1654       H  0.24799291  0.58930245  0.91861258     0.40260
H1655       H  0.25847520  0.63069056  0.09475208     0.39880
H1656       H  0.27299711  0.59065149  0.09271104     0.34760
C1657       C  0.97012095  0.85064325  0.59310253    -0.26970
C1658       C  0.97149756  0.88669854  0.59461429    -0.15040
C1659       C  0.00222330  0.90276896  0.59932955     0.35590
C1660       C  0.03101509  0.88246378  0.60133881    -0.26410
C1661       C  0.02973878  0.84655118  0.59746790    -0.15650
C1662       C  0.99894094  0.83043651  0.59411568     0.36680
N1663       N  0.99712708  0.79375217  0.59106160    -0.89900
H1664       H  0.94658093  0.83798524  0.59096870     0.17790
H1665       H  0.05456569  0.89489986  0.60513059     0.17780
N1666       N  0.00412451  0.93951134  0.60144716    -0.88930
H1667       H  0.97257262  0.78587619  0.58832922     0.35160
H1668       H  0.00564072  0.78327185  0.61567882     0.40260
H1669       H  0.99650926  0.94945841  0.57621646     0.39880
H1670       H  0.02862232  0.94730466  0.60490335     0.34760
C1671       C  0.52911148  0.88316028  0.42387426    -0.26970
C1672       C  0.52927248  0.84889757  0.41202552    -0.15040
C1673       C  0.50021524  0.83513002  0.39693962     0.35590
C1674       C  0.47154651  0.85581600  0.39489943    -0.26410
C1675       C  0.47151957  0.88989038  0.40760194    -0.15650
C1676       C  0.50067454  0.90377545  0.42185987     0.36680
N1677       N  0.50137913  0.93887998  0.43377908    -0.89900
H1678       H  0.55129785  0.89396887  0.43489596     0.17790
H1679       H  0.44880542  0.84496756  0.38457402     0.17780
N1680       N  0.49939255  0.79989399  0.38562043    -0.88930
H1681       H  0.52515084  0.94572201  0.44200598     0.35160
H1682       H  0.48622679  0.94089515  0.45699090     0.40260
H1683       H  0.51514581  0.79740219  0.36295912     0.39880
H1684       H  0.47573261  0.79336231  0.37667265     0.34760
C1685       C  0.72412131  0.84969567  0.52022201    -0.26970
C1686       C  0.72398433  0.85584113  0.48258291    -0.15040
C1687       C  0.75123616  0.87167971  0.46510199     0.35590
C1688       C  0.77855832  0.88084220  0.48574646    -0.26410
C1689       C  0.77858955  0.87495283  0.52344403    -0.15650
C1690       C  0.75143408  0.85887941  0.54087741     0.36680
N1691       N  0.75195265  0.85083382  0.57924025    -0.89900
H1692       H  0.70319140  0.83738345  0.53350533     0.17790
H1693       H  0.79946028  0.89319928  0.47245145     0.17780
N1694       N  0.75073948  0.87961442  0.42670924    -0.88930
H1695       H  0.74936294  0.82428696  0.58219543     0.35160
H1696       H  0.73136899  0.86236803  0.59155305     0.40260
H1697       H  0.77105737  0.86764048  0.41432500     0.39880
H1698       H  0.75360323  0.90612042  0.42362163     0.34760
C1699       C  0.47814012  0.60919738  0.56335377    -0.26970
C1700       C  0.47322360  0.63493014  0.58978233    -0.15040
C1701       C  0.49647049  0.63835011  0.61815762     0.35590
C1702       C  0.52412529  0.61624417  0.61910903    -0.26410
C1703       C  0.52911468  0.59074933  0.59236772    -0.15650
C1704       C  0.50501733  0.58654443  0.56481132     0.36680
N1705       N  0.50653390  0.55935048  0.53828282    -0.89900
H1706       H  0.46023761  0.60579755  0.54174774     0.17790
H1707       H  0.54266653  0.61991742  0.63994241     0.17780
N1708       N  0.49253665  0.66480758  0.64516139    -0.88930
H1709       H  0.48480580  0.54505356  0.54095333     0.35160
H1710       H  0.52537218  0.54206010  0.54431593     0.40260
H1711       H  0.49446379  0.68840742  0.63160526     0.39880
H1712       H  0.51182388  0.66389791  0.66407210     0.34760
C1713       C  0.78326384  0.51133014  0.63123221    -0.26970
C1714       C  0.78198756  0.97542254  0.63558480    -0.15040
C1715       C  0.75050818  0.96015754  0.64148144     0.35590
C1716       C  0.72166587  0.98069873  0.64181742    -0.26410
C1717       C  0.72292283  0.51642226  0.63676428    -0.15650
C1718       C  0.75436531  0.53192270  0.63208529     0.36680
N1719       N  0.75688636  0.56831899  0.62631760    -0.89900
H1720       H  0.80700238  0.52349239  0.62667408     0.17790
H1721       H  0.69778721  0.96851201  0.64527152     0.17780
N1722       N  0.74754160  0.92365268  0.64586267    -0.88930
H1723       H  0.78136034  0.57534422  0.62082326     0.35160
H1724       H  0.75039596  0.58027980  0.65093437     0.40260
H1725       H  0.75372738  0.91262296  0.62070706     0.39880
H1726       H  0.72302175  0.91671587  0.65123348     0.34760
C1727       C  0.65754867  0.98147596  0.49704213    -0.26970
C1728       C  0.62714569  0.98897123  0.51424948    -0.15040
C1729       C  0.59841675  0.97174410  0.50245056     0.35590
C1730       C  0.60120254  0.94676412  0.47516680    -0.26410
C1731       C  0.63172729  0.93807493  0.45882343    -0.15650
C1732       C  0.66025829  0.95619660  0.46965232     0.36680
N1733       N  0.69203347  0.94809418  0.45405212    -0.89900
H1734       H  0.67946807  0.99531085  0.50534511     0.17790
H1735       H  0.57903206  0.93335213  0.46745819     0.17780
N1736       N  0.56585939  0.97941660  0.51624655    -0.88930
H1737       H  0.71058100  0.96276681  0.46616253     0.35160
H1738       H  0.69150672  0.95520477  0.42640216     0.40260
H1739       H  0.56590331  0.49947774  0.53494550     0.39880
H1740       H  0.55721038  0.95770386  0.53019346     0.34760
C1741       C  0.59271595  0.72207445  0.50261924    -0.26970
C1742       C  0.62223286  0.73697753  0.49008354    -0.15040
C1743       C  0.65246900  0.72748187  0.50686555     0.35590
C1744       C  0.65225290  0.70381700  0.53585336    -0.26410
C1745       C  0.62293786  0.68805424  0.54786328    -0.15650
C1746       C  0.59268903  0.69772761  0.53131939     0.36680
N1747       N  0.56210369  0.68258868  0.54349216    -0.89900
H1748       H  0.56952837  0.73011510  0.49059934     0.17790
H1749       H  0.67570857  0.69610025  0.54745534     0.17780
N1750       N  0.68399724  0.74063197  0.49475600    -0.88930
H1751       H  0.54223062  0.69228408  0.52847575     0.35160
H1752       H  0.55822142  0.68992167  0.57072678     0.40260
H1753       H  0.68188632  0.75580546  0.47128095     0.39880
H1754       H  0.69853441  0.71969128  0.48684080     0.34760
C1755       C  0.00977396  0.60011538  0.38624128    -0.26970
C1756       C  0.02881229  0.59848264  0.41832053    -0.15040
C1757       C  0.01927401  0.61943688  0.44841226     0.35590
C1758       C  0.99152240  0.64111270  0.44554500    -0.26410
C1759       C  0.97224187  0.64239266  0.41374633    -0.15650
C1760       C  0.98162641  0.62123848  0.38377890     0.36680
N1761       N  0.96250164  0.61950429  0.35095113    -0.89900
H1762       H  0.01660038  0.58454639  0.36283022     0.17790
H1763       H  0.98447287  0.65672181  0.46884677     0.17780
N1764       N  0.03793496  0.61924826  0.48180105    -0.88930
H1765       H  0.96181600  0.64382943  0.33886413     0.35160
H1766       H  0.93848151  0.61187002  0.35783620     0.40260
H1767       H  0.03389137  0.59559466  0.49463871     0.39880
H1768       H  0.02907991  0.63785286  0.49996930     0.34760
C1769       C  0.77955217  0.75482601  0.35896777    -0.26970
C1770       C  0.77915922  0.72018764  0.36968112    -0.15040
C1771       C  0.74832216  0.70542288  0.37953867     0.35590
C1772       C  0.71921006  0.72569356  0.37933670    -0.26410
C1773       C  0.71950836  0.76057070  0.36894929    -0.15650
C1774       C  0.75051505  0.77486174  0.35805318     0.36680
N1775       N  0.75379994  0.80984403  0.34653660    -0.89900
H1776       H  0.80286159  0.76666237  0.35142142     0.17790
H1777       H  0.69610694  0.71412069  0.38800504     0.17780
N1778       N  0.74676342  0.67034499  0.39167362    -0.88930
H1779       H  0.74639312  0.82583348  0.36799215     0.35160
H1780       H  0.73873339  0.81397108  0.32377861     0.40260
H1781       H  0.75172685  0.65481257  0.36900691     0.39880
H1782       H  0.72286549  0.66409457  0.40048660     0.34760
C1783       C  0.88969686  0.52849971  0.52268156    -0.26970
C1784       C  0.88263821  0.99530722  0.51070834    -0.15040
C1785       C  0.87510285  0.99011229  0.47297427     0.35590
C1786       C  0.87308267  0.51843271  0.44898487    -0.26410
C1787       C  0.87988567  0.55147281  0.46130724    -0.15650
C1788       C  0.88841769  0.55643925  0.49850855     0.36680
N1789       N  0.89448845  0.59019366  0.51234962    -0.89900
H1790       H  0.89539948  0.53306112  0.55123124     0.17790
H1791       H  0.86668413  0.51467921  0.42048825     0.17780
N1792       N  0.86970262  0.95617318  0.45893150    -0.88930
H1793       H  0.91823070  0.59057553  0.52346996     0.35160
H1794       H  0.87753404  0.59500644  0.53348938     0.40260
H1795       H  0.89208185  0.94285419  0.46081722     0.39880
H1796       H  0.86377509  0.95703042  0.43108913     0.34760
C1797       C  0.84682850  0.75177118  0.51338480    -0.26970
C1798       C  0.87538350  0.74801171  0.49152849    -0.15040
C1799       C  0.90327906  0.76814911  0.49898477     0.35590
C1800       C  0.90159062  0.79251892  0.52724084    -0.26410
C1801       C  0.87239533  0.79772189  0.54808643    -0.15650
C1802       C  0.84476714  0.77662366  0.54114424     0.36680
N1803       N  0.81442160  0.78091371  0.56133644    -0.89900
H1804       H  0.82560878  0.73560200  0.50816125     0.17790
H1805       H  0.92311128  0.80829066  0.53218208     0.17780
N1806       N  0.93331989  0.76349597  0.47828303    -0.88930
H1807       H  0.79770285  0.76143486  0.55495584     0.35160
H1808       H  0.80356341  0.80366945  0.55215539     0.40260
H1809       H  0.94221405  0.73886290  0.48396197     0.39880
H1810       H  0.95148789  0.78061885  0.48700061     0.34760
C1811       C  0.77361946  0.64426045  0.51488330    -0.26970
C1812       C  0.78047180  0.62431098  0.48413454    -0.15040
C1813       C  0.75828544  0.59884799  0.47230848     0.35590
C1814       C  0.72906359  0.59375091  0.49198013    -0.26410
C1815       C  0.72223472  0.61364588  0.52276047    -0.15650
C1816       C  0.74440009  0.63912765  0.53458649     0.36680
N1817       N  0.73664946  0.66021701  0.56578250    -0.89900
H1818       H  0.79073693  0.66417774  0.52298281     0.17790
H1819       H  0.71193465  0.57385349  0.48385281     0.17780
N1820       N  0.76604261  0.57769732  0.44115508    -0.88930
H1821       H  0.75457950  0.67923153  0.56905965     0.35160
H1822       H  0.73784763  0.64478088  0.58920954     0.40260
H1823       H  0.76478930  0.59307719  0.41769041     0.39880
H1824       H  0.74812229  0.55866437  0.43792829     0.34760
C1825       C  0.47811426  0.86842367  0.11905080    -0.26970
C1826       C  0.47298778  0.84412718  0.09128082    -0.15040
C1827       C  0.49676946  0.84091035  0.06287889     0.35590
C1828       C  0.52359813  0.86354324  0.06162153    -0.26410
C1829       C  0.52861331  0.88826795  0.08899128    -0.15650
C1830       C  0.50569381  0.89047127  0.11829064     0.36680
N1831       N  0.51000158  0.91552631  0.14664967    -0.89900
H1832       H  0.45969397  0.87131784  0.14054540     0.17790
H1833       H  0.54142871  0.86078143  0.03952863     0.17780
N1834       N  0.49497390  0.81466360  0.03530949    -0.88930
H1835       H  0.49109362  0.91361112  0.16623667     0.35160
H1836       H  0.50775205  0.93976656  0.13455651     0.40260
H1837       H  0.47597039  0.79731279  0.04078884     0.39880
H1838       H  0.51655886  0.80005987  0.03723459     0.34760
C1839       C  0.60294477  0.84526655  0.26805005    -0.26970
C1840       C  0.62681241  0.85961862  0.29118870    -0.15040
C1841       C  0.64799381  0.88558911  0.27727496     0.35590
C1842       C  0.64470383  0.89653570  0.24089459    -0.26410
C1843       C  0.62123727  0.88199057  0.21773939    -0.15650
C1844       C  0.59984140  0.85617855  0.23144089     0.36680
N1845       N  0.57438825  0.84110439  0.20943752    -0.89900
H1846       H  0.58651902  0.82553692  0.27850907     0.17790
H1847       H  0.66160577  0.91565652  0.23000303     0.17780
N1848       N  0.67414920  0.89937272  0.29930989    -0.88930
H1849       H  0.58043762  0.81529132  0.20557775     0.35160
H1850       H  0.57315005  0.85248374  0.18353236     0.40260
H1851       H  0.66337196  0.91620058  0.31816367     0.39880
H1852       H  0.69020237  0.91431214  0.28333983     0.34760
C1853       C  0.97054592  0.88528357  0.90831613    -0.26970
C1854       C  0.97116029  0.84933516  0.90676948    -0.15040
C1855       C  0.00129507  0.83237680  0.90057875     0.35590
C1856       C  0.03065622  0.85175116  0.89941678    -0.26410
C1857       C  0.03004505  0.88755561  0.90424407    -0.15650
C1858       C  0.99956788  0.90467937  0.90705010     0.36680
N1859       N  0.99715609  0.94141143  0.90921541    -0.89900
H1860       H  0.94728932  0.89850735  0.91053240     0.17790
H1861       H  0.05414387  0.83881557  0.89581947     0.17780
N1862       N  0.00193899  0.79582223  0.89589139    -0.88930
H1863       H  0.98435729  0.94984725  0.88606304     0.35160
H1864       H  0.02028605  0.95318036  0.90805679     0.40260
H1865       H  0.99461936  0.78460887  0.92072470     0.39880
H1866       H  0.02601546  0.78742608  0.89042736     0.34760
C1867       C  0.90003745  0.87605219  0.77518893    -0.26970
C1868       C  0.87249530  0.85831396  0.78906866    -0.15040
C1869       C  0.84532570  0.85180287  0.76632673     0.35590
C1870       C  0.84617669  0.86312500  0.72993131    -0.26410
C1871       C  0.87358479  0.88085561  0.71568795    -0.15650
C1872       C  0.90111262  0.88718812  0.73848455     0.36680
N1873       N  0.93078305  0.90342645  0.72526283    -0.89900
H1874       H  0.92085172  0.88109282  0.79291157     0.17790
H1875       H  0.82502123  0.85845627  0.71256297     0.17780
N1876       N  0.81647677  0.83476212  0.78070549    -0.88930
H1877       H  0.93310070  0.92683725  0.73886798     0.35160
H1878       H  0.92963978  0.90884058  0.69728538     0.40260
H1879       H  0.82320002  0.80954748  0.78705239     0.39880
H1880       H  0.79811146  0.83318549  0.76076021     0.34760
C1881       C  0.78077770  0.85946567  0.02241677    -0.26970
C1882       C  0.77949960  0.86501749  0.98468804    -0.15040
C1883       C  0.75078044  0.87843283  0.96811180     0.35590
C1884       C  0.72286120  0.88395236  0.98968901    -0.26410
C1885       C  0.72381116  0.87743495  0.02726894    -0.15650
C1886       C  0.75300633  0.86553531  0.04399588     0.36680
N1887       N  0.75419398  0.85846183  0.08255604    -0.89900
H1888       H  0.80302653  0.84948051  0.03499157     0.17790
H1889       H  0.70049925  0.89388816  0.97732198     0.17780
N1890       N  0.75031732  0.88689717  0.92968526    -0.88930
H1891       H  0.77294598  0.87341079  0.09388933     0.35160
H1892       H  0.76048465  0.83265068  0.08612576     0.40260
H1893       H  0.76709685  0.90691425  0.92539459     0.39880
H1894       H  0.72711121  0.89619777  0.92200971     0.34760
C1895       C  0.50438062  0.65575255  0.90478506    -0.26970
C1896       C  0.53312501  0.63654636  0.90964064    -0.15040
C1897       C  0.53098430  0.60022717  0.90849067     0.35590
C1898       C  0.49981026  0.58412809  0.90923131    -0.26410
C1899       C  0.47086590  0.60357675  0.90767070    -0.15650
C1900       C  0.47353652  0.63967526  0.90216378     0.36680
N1901       N  0.44584906  0.66051030  0.89174960    -0.89900
H1902       H  0.50593354  0.68342845  0.90242132     0.17790
H1903       H  0.49812876  0.55647749  0.91167285     0.17780
N1904       N  0.56029106  0.57974568  0.90570077    -0.88930
H1905       H  0.44109760  0.67823594  0.91249040     0.35160
H1906       H  0.42479177  0.64570136  0.88794365     0.40260
H1907       H  0.57160132  0.58553316  0.88056893     0.39880
H1908       H  0.55446990  0.55363230  0.90509196     0.34760
C1909       C  0.61060505  0.64307772  0.76674315    -0.26970
C1910       C  0.63203327  0.62603040  0.79083244    -0.15040
C1911       C  0.65049656  0.59757823  0.77787967     0.35590
C1912       C  0.64661322  0.58658718  0.74163063    -0.26410
C1913       C  0.62587142  0.60405325  0.71732239    -0.15650
C1914       C  0.60719928  0.63246624  0.73016734     0.36680
N1915       N  0.58455091  0.65101593  0.70721189    -0.89900
H1916       H  0.59628518  0.66478756  0.77640809     0.17790
H1917       H  0.66148917  0.56540474  0.73160430     0.17780
N1918       N  0.67431339  0.58082796  0.80099038    -0.88930
H1919       H  0.56097799  0.64858074  0.71886534     0.35160
H1920       H  0.58301880  0.64017985  0.68122361     0.40260
H1921       H  0.69308280  0.59850789  0.80631608     0.39880
H1922       H  0.68551451  0.56027040  0.78737665     0.34760
C1923       C  0.72031500  0.75993983  0.87646028    -0.26970
C1924       C  0.72252816  0.72456256  0.86903962    -0.15040
C1925       C  0.75428461  0.71098461  0.86019673     0.35590
C1926       C  0.78240465  0.73217910  0.86116775    -0.26410
C1927       C  0.78011094  0.76728049  0.86936059    -0.15650
C1928       C  0.74843227  0.78139496  0.87625694     0.36680
N1929       N  0.74496207  0.81713358  0.88501385    -0.89900
H1930       H  0.69645342  0.77103005  0.88305129     0.17790
H1931       H  0.80643929  0.72096402  0.85560149     0.17780
N1932       N  0.75915765  0.67578488  0.85043904    -0.88930
H1933       H  0.72048455  0.82292444  0.89201568     0.35160
H1934       H  0.75022816  0.83115168  0.86121011     0.40260
H1935       H  0.74509324  0.67047402  0.82722013     0.39880
H1936       H  0.75138560  0.66014871  0.87211505     0.34760
C1937       C  0.65502426  0.49764531  0.99148419    -0.26970
C1938       C  0.62635112  0.99479915  0.01340715    -0.15040
C1939       C  0.59950889  0.51673284  0.00683465     0.35590
C1940       C  0.60243459  0.54202671  0.97960513    -0.26410
C1941       C  0.63179462  0.54632418  0.95878112    -0.15650
C1942       C  0.65822802  0.52326979  0.96447243     0.36680
N1943       N  0.68829005  0.52594540  0.94340010    -0.89900
H1944       H  0.67543694  0.98013986  0.99604143     0.17790
H1945       H  0.58174731  0.55924539  0.97558288     0.17780
N1946       N  0.56929335  0.01308823  0.02748821    -0.88930
H1947       H  0.70404840  0.50538611  0.94921845     0.35160
H1948       H  0.70069996  0.54789950  0.95206531     0.40260
H1949       H  0.55909173  0.98927812  0.02093077     0.39880
H1950       H  0.55203381  0.03160904  0.01952905     0.34760
C1951       C  0.59780216  0.79137435  0.02652299    -0.26970
C1952       C  0.62660270  0.79710047  0.04743564    -0.15040
C1953       C  0.65481521  0.77672037  0.03996500     0.35590
C1954       C  0.65329856  0.75135371  0.01260216    -0.26410
C1955       C  0.62480634  0.74640987  0.99131310    -0.15650
C1956       C  0.59668047  0.76650693  0.99856456     0.36680
N1957       N  0.56698695  0.76130622  0.97792628    -0.89900
H1958       H  0.57610715  0.80697987  0.03140525     0.17790
H1959       H  0.67490890  0.73563077  0.00727473     0.17780
N1960       N  0.68523865  0.78228098  0.05918714    -0.88930
H1961       H  0.54868592  0.77870677  0.98595312     0.35160
H1962       H  0.55806190  0.73682820  0.98430564     0.40260
H1963       H  0.69492251  0.80567332  0.05008291     0.39880
H1964       H  0.70276322  0.76370013  0.05202493     0.34760
C1965       C  0.99529128  0.58618143  0.09826855    -0.26970
C1966       C  0.96665807  0.60618914  0.09515277    -0.15040
C1967       C  0.96999752  0.64256683  0.09523609     0.35590
C1968       C  0.00133496  0.65772051  0.09484428    -0.26410
C1969       C  0.02985964  0.63765118  0.09502047    -0.15650
C1970       C  0.02686552  0.60163323  0.09880559     0.36680
N1971       N  0.05587038  0.58084670  0.10309011    -0.89900
H1972       H  0.99312825  0.55849513  0.09914892     0.17790
H1973       H  0.00339271  0.68542358  0.09369938     0.17780
N1974       N  0.94199734  0.66499676  0.09632478    -0.88930
H1975       H  0.04924849  0.55512578  0.10653477     0.35160
H1976       H  0.06728343  0.58819324  0.12745382     0.40260
H1977       H  0.92647131  0.65739101  0.11789993     0.39880
H1978       H  0.92937269  0.66346179  0.07155198     0.34760
C1979       C  0.87327051  0.59555380  0.28081126    -0.26970
C1980       C  0.87748591  0.63057018  0.28881857    -0.15040
C1981       C  0.88228971  0.65383394  0.25932349     0.35590
C1982       C  0.88104922  0.64169492  0.22297941    -0.26410
C1983       C  0.87482395  0.60704055  0.21532579    -0.15650
C1984       C  0.87114120  0.58360574  0.24483747     0.36680
N1985       N  0.86251453  0.54812279  0.23995533    -0.89900
H1986       H  0.86955940  0.57715474  0.30279103     0.17790
H1987       H  0.88386613  0.65960553  0.20037627     0.17780
N1988       N  0.88766512  0.68969236  0.26601472    -0.88930
H1989       H  0.88292393  0.53328024  0.24747349     0.35160
H1990       H  0.85669375  0.54211382  0.21298150     0.40260
H1991       H  0.86531299  0.70003271  0.27537879     0.39880
H1992       H  0.89321654  0.70255999  0.24153964     0.34760
C1993       C  0.74372842  0.52920874  0.14137552    -0.26970
C1994       C  0.77531778  0.51382463  0.14036951    -0.15040
C1995       C  0.77685074  0.97742721  0.14151966     0.35590
C1996       C  0.74724005  0.95787239  0.14233465    -0.26410
C1997       C  0.71581922  0.97347608  0.14112354    -0.15650
C1998       C  0.71431160  0.50974006  0.14158745     0.36680
N1999       N  0.68282420  0.52689299  0.14172758    -0.89900
H2000       H  0.74176751  0.55691019  0.14089868     0.17790
H2001       H  0.74879367  0.93013585  0.14186838     0.17780
N2002       N  0.80825840  0.96017828  0.14065347    -0.88930
H2003       H  0.68586862  0.55351752  0.14139235     0.35160
H2004       H  0.67094627  0.02081130  0.16645136     0.40260
H2005       H  0.81873998  0.96435883  0.11475963     0.39880
H2006       H  0.80508989  0.93365777  0.14311380     0.34760
C2007       C  0.90415938  0.98392490  0.99117172    -0.26970
C2008       C  0.87822381  0.98882982  0.01640348    -0.15040
C2009       C  0.84745544  0.97233890  0.00985827     0.35590
C2010       C  0.84473704  0.94953142  0.98032701    -0.26410
C2011       C  0.87146705  0.94309578  0.95657736    -0.15650
C2012       C  0.90104627  0.96144339  0.96137489     0.36680
N2013       N  0.92797362  0.95696770  0.93609863    -0.89900
H2014       H  0.92725803  0.99745809  0.99500214     0.17790
H2015       H  0.82175300  0.93570048  0.97680413     0.17780
N2016       N  0.81808040  0.97866859  0.03123407    -0.88930
H2017       H  0.94771474  0.97280868  0.94323002     0.35160
H2018       H  0.91997963  0.96526756  0.91035400     0.40260
H2019       H  0.82071430  0.49873450  0.04968658     0.39880
H2020       H  0.81270500  0.95640651  0.04616863     0.34760
C2021       C  0.84284742  0.69083788  0.00611351    -0.26970
C2022       C  0.85701893  0.68967837  0.04130950    -0.15040
C2023       C  0.87656906  0.71787126  0.05260409     0.35590
C2024       C  0.88381950  0.74416741  0.02707402    -0.26410
C2025       C  0.87186959  0.74321527  0.99089021    -0.15650
C2026       C  0.85015392  0.71674384  0.98104782     0.36680
N2027       N  0.83428508  0.71591630  0.94612235    -0.89900
H2028       H  0.82672642  0.67034469  0.99724936     0.17790
H2029       H  0.89900148  0.76555938  0.03556306     0.17780
N2030       N  0.88994569  0.72069524  0.08884119    -0.88930
H2031       H  0.85239872  0.71541848  0.92557523     0.35160
H2032       H  0.82006486  0.73815310  0.94343115     0.40260
H2033       H  0.88159056  0.70100073  0.10583508     0.39880
H2034       H  0.88068549  0.74331439  0.10031776     0.34760
C2035       C  0.78548096  0.60615113  0.98151719    -0.26970
C2036       C  0.78053291  0.58270635  0.00996093    -0.15040
C2037       C  0.74852166  0.57500574  0.02251346     0.35590
C2038       C  0.72173098  0.59275472  0.00765227    -0.26410
C2039       C  0.72682319  0.61848988  0.98115842    -0.15650
C2040       C  0.75918666  0.62547208  0.96818158     0.36680
N2041       N  0.76548432  0.65303274  0.94274942    -0.89900
H2042       H  0.81049353  0.61264572  0.97315054     0.17790
H2043       H  0.69693350  0.58653924  0.01689779     0.17780
N2044       N  0.74382795  0.55079827  0.05190706    -0.88930
H2045       H  0.79058962  0.65441695  0.93590306     0.35160
H2046       H  0.75952243  0.67600183  0.95596129     0.40260
H2047       H  0.75181721  0.52684977  0.04254392     0.39880
H2048       H  0.71871624  0.54830637  0.05834985     0.34760
loop_ 
_geom_bond_atom_site_label_1 
_geom_bond_atom_site_label_2 
_geom_bond_distance 
_geom_bond_site_symmetry_2 
_ccdc_geom_bond_type 
O1          Cr19   2.072       .  S
O1            C9   1.291       .  A
O2          Cr19   1.986       .  S
O2            C3   1.262       .  A
C3            O4   1.261       .  A
C3          C959   1.478       .  S
O4          Cr20   1.982       .  S
O5          Cr20   2.030       .  S
O5            C6   1.263       .  A
C6            O7   1.247       .  A
C6          C998   1.489       .  S
O7          Cr21   1.954       .  S
O8          Cr21   1.939       .  S
O8            C9   1.262       .  A
C9          C942   1.492       .  S
O10         Cr19   2.010       .  S
O10          C18   1.249       .  A
O11         Cr19   2.023       .  S
O11          C12   1.270       .  A
C12          O13   1.264       .  A
C12         C970   1.516       .  S
O13         Cr20   1.988       .  S
O14         Cr20   1.979       .  S
O14          C15   1.271       .  A
C15          O16   1.268       .  A
C15        C1012   1.437       .  S
O16         Cr21   1.967       .  S
O17         Cr21   1.967       .  S
O17          C18   1.241       .  A
C18        C2008   1.486   1_545  S
Cr19         O22   1.772       .  S
Cr20         O22   1.770       .  S
Cr21         O22   1.778       .  S
O23         Cr41   2.040       .  S
O23          C31   1.275       .  A
O24         Cr41   1.987       .  S
O24          C25   1.260       .  A
C25          O26   1.270       .  A
C25         C872   1.485       .  S
O26         Cr42   2.013       .  S
O27         Cr42   1.926       .  S
O27          C28   1.246       .  A
C28          O29   1.270       .  A
C28         C917   1.488       .  S
O29         Cr43   2.049       .  S
O30         Cr43   1.953       .  S
O30          C31   1.257       .  A
C31         C886   1.485       .  S
O32         Cr41   1.994       .  S
O32          C40   1.267       .  A
O33         Cr41   2.057       .  S
O33          C34   1.278       .  A
C34          O35   1.250       .  A
C34         C931   1.487       .  S
O35         Cr42   1.944       .  S
O36         Cr42   2.015       .  S
O36          C37   1.268       .  A
C37          O38   1.250       .  A
C37        C1015   1.464       .  S
O38         Cr43   1.934       .  S
O39         Cr43   2.026       .  S
O39          C40   1.271       .  A
C40         C900   1.509       .  S
Cr41         O44   1.763       .  S
Cr42         O44   1.757       .  S
Cr43         O44   1.755       .  S
O45         Cr63   2.024       .  S
O45          C53   1.272       .  A
O46         Cr63   1.986       .  S
O46          C47   1.259       .  A
C47          O48   1.264       .  A
C47         C830   1.473       .  S
O48         Cr64   1.995       .  S
O49         Cr64   1.958       .  S
O49          C50   1.250       .  A
C50          O51   1.267       .  A
C50         C987   1.482       .  S
O51         Cr65   2.038       .  S
O52         Cr65   1.965       .  S
O52          C53   1.259       .  A
C53         C844   1.466       .  S
O54         Cr63   1.989       .  S
O54          C62   1.263       .  A
O55         Cr63   2.037       .  S
O55          C56   1.274       .  A
C56          O57   1.251       .  A
C56        C1001   1.478       .  S
O57         Cr64   1.948       .  S
O58         Cr64   2.003       .  S
O58          C59   1.266       .  A
C59          O60   1.251       .  A
C59         C858   1.443       .  S
O60         Cr65   1.928       .  S
O61         Cr65   2.023       .  S
O61          C62   1.269       .  A
C62         C903   1.499       .  S
Cr63         O66   1.768       .  S
Cr64         O66   1.770       .  S
Cr65         O66   1.763       .  S
O67         Cr85   1.990       .  S
O67          C75   1.262       .  A
O68         Cr85   2.024       .  S
O68          C69   1.271       .  A
C69          O70   1.258       .  A
C69         C819   1.470       .  S
O70         Cr86   1.968       .  S
O71         Cr86   2.058       .  S
O71          C72   1.275       .  A
C72          O73   1.249       .  A
C72         C928   1.500       .  S
O73         Cr87   1.950       .  S
O74         Cr87   1.998       .  S
O74          C75   1.265       .  A
C75         C805   1.487       .  S
O76         Cr85   2.041       .  S
O76          C84   1.274       .  A
O77         Cr85   1.988       .  S
O77          C78   1.267       .  A
C78          O79   1.278       .  A
C78         C973   1.509       .  S
O79         Cr86   2.044       .  S
O80         Cr86   1.927       .  S
O80          C81   1.248       .  A
C81          O82   1.266       .  A
C81         C861   1.444       .  S
O82         Cr87   2.001       .  S
O83         Cr87   1.940       .  S
O83          C84   1.249       .  A
C84         C914   1.476       .  S
Cr85         O88   1.762       .  S
Cr86         O88   1.757       .  S
Cr87         O88   1.756       .  S
O89        Cr107   2.001       .  S
O89          C97   1.263       .  A
O90        Cr107   2.031       .  S
O90          C91   1.272       .  A
C91          O92   1.259       .  A
C91         C956   1.495       .  S
O92        Cr108   1.961       .  S
O93        Cr108   2.051       .  S
O93          C94   1.272       .  A
C94          O95   1.247       .  A
C94         C763   1.478       .  S
O95        Cr109   1.945       .  S
O96        Cr109   2.000       .  S
O96          C97   1.265       .  A
C97         C735   1.498       .  S
O98        Cr107   2.051       .  S
O98         C106   1.276       .  A
O99        Cr107   2.002       .  S
O99         C100   1.270       .  A
C100        O101   1.275       .  A
C100        C746   1.507       .  S
O101       Cr108   2.032       .  S
O102       Cr108   1.927       .  S
O102        C103   1.248       .  A
C103        O104   1.265       .  A
C103        C788   1.439       .  S
O104       Cr109   2.010       .  S
O105       Cr109   1.940       .  S
O105        C106   1.250       .  A
C106        C774   1.478       .  S
Cr107       O110   1.763       .  S
Cr108       O110   1.757       .  S
Cr109       O110   1.758       .  S
O111       Cr129   2.026       .  S
O111        C119   1.271       .  A
O112       Cr129   1.995       .  S
O112        C113   1.263       .  A
C113        O114   1.265       .  A
C113        C679   1.486       .  S
O114       Cr130   2.001       .  S
O115       Cr130   1.955       .  S
O115        C116   1.250       .  A
C116        O117   1.272       .  A
C116        C721   1.488       .  S
O117       Cr131   2.040       .  S
O118       Cr131   1.968       .  S
O118        C119   1.257       .  A
C119        C889   1.477       .  S
O120       Cr129   1.994       .  S
O120        C128   1.268       .  A
O121       Cr129   2.043       .  S
O121        C122   1.275       .  A
C122        O123   1.252       .  A
C122       C1728   1.480   1_545  S
O123       Cr130   1.951       .  S
O124       Cr130   2.007       .  S
O124        C125   1.265       .  A
C125        O126   1.249       .  A
C125        C791   1.439       .  S
O126       Cr131   1.929       .  S
O127       Cr131   2.034       .  S
O127        C128   1.275       .  A
C128        C693   1.506       .  S
Cr129       O132   1.762       .  S
Cr130       O132   1.762       .  S
Cr131       O132   1.759       .  S
O133       Cr151   1.998       .  S
O133        C141   1.264       .  A
O134       Cr151   2.041       .  S
O134        C135   1.276       .  A
C135        O136   1.257       .  A
C135        C816   1.483       .  S
O136       Cr152   1.951       .  S
O137       Cr152   2.046       .  S
O137        C138   1.269       .  A
C138        O139   1.249       .  A
C138        C707   1.493       .  S
O139       Cr153   1.949       .  S
O140       Cr153   2.004       .  S
O140        C141   1.267       .  A
C141        C648   1.488       .  S
O142       Cr151   2.044       .  S
O142        C150   1.274       .  A
O143       Cr151   2.011       .  S
O143        C144   1.268       .  A
C144        O145   1.269       .  A
C144        C749   1.517       .  S
O145       Cr152   2.023       .  S
O146       Cr152   1.931       .  S
O146        C147   1.250       .  A
C147        O148   1.268       .  A
C147        C662   1.446       .  S
O148       Cr153   2.010       .  S
O149       Cr153   1.943       .  S
O149        C150   1.251       .  A
C150        C718   1.477       .  S
Cr151       O154   1.766       .  S
Cr152       O154   1.760       .  S
Cr153       O154   1.759       .  S
O155       Cr173   2.032       .  S
O155        C163   1.273       .  A
O156       Cr173   1.995       .  S
O156        C157   1.262       .  A
C157        O158   1.265       .  A
C157        C634   1.482       .  S
O158       Cr174   2.001       .  S
O159       Cr174   1.938       .  S
O159        C160   1.246       .  A
C160        O161   1.270       .  A
C160        C777   1.492       .  S
O161       Cr175   2.048       .  S
O162       Cr175   1.954       .  S
O162        C163   1.258       .  A
C163        C847   1.472       .  S
O164       Cr173   2.006       .  S
O164        C172   1.269       .  A
O165       Cr173   2.046       .  S
O165        C166   1.276       .  A
C166        O167   1.249       .  A
C166        C760   1.490       .  S
O167       Cr174   1.940       .  S
O168       Cr174   2.008       .  S
O168        C169   1.267       .  A
C169        O170   1.250       .  A
C169        C665   1.447       .  S
O170       Cr175   1.932       .  S
O171       Cr175   2.028       .  S
O171        C172   1.273       .  A
C172        C690   1.513       .  S
Cr173       O176   1.764       .  S
Cr174       O176   1.758       .  S
Cr175       O176   1.760       .  S
O177       Cr195   1.987       .  S
O177        C185   1.262       .  A
O178       Cr195   2.026       .  S
O178        C179   1.273       .  A
C179        O180   1.261       .  A
C179        C564   1.475       .  S
O180       Cr196   1.975       .  S
O181       Cr196   2.075       .  S
O181        C182   1.276       .  A
C182        O183   1.251       .  A
C182        C592   1.499       .  S
O183       Cr197   1.957       .  S
O184       Cr197   2.013       .  S
O184        C185   1.271       .  A
C185        C945   1.482       .  S
O186       Cr195   2.046       .  S
O186        C194   1.272       .  A
O187       Cr195   1.996       .  S
O187        C188   1.265       .  A
C188        O189   1.276       .  A
C188        C578   1.515       .  S
O189       Cr196   2.038       .  S
O190       Cr196   1.920       .  S
O190        C191   1.241       .  A
C191        O192   1.268       .  A
C191        C620   1.447       .  S
O192       Cr197   1.996       .  S
O193       Cr197   1.945       .  S
O193        C194   1.247       .  A
C194        C609   1.480       .  S
Cr195       O198   1.765       .  S
Cr196       O198   1.762       .  S
Cr197       O198   1.758       .  S
O199       Cr217   2.009       .  S
O199        C207   1.264       .  A
O200       Cr217   2.061       .  S
O200        C201   1.289       .  A
C201        O202   1.263       .  A
C201        C875   1.485       .  S
O202       Cr218   1.944       .  S
O203       Cr218   1.942       .  S
O203        C204   1.242       .  A
C204        O205   1.270       .  A
C204        C553   1.474       .  S
O205       Cr219   2.039       .  S
O206       Cr219   1.965       .  S
O206        C207   1.254       .  A
C207        C511   1.483       .  S
O208       Cr217   2.017       .  S
O208        C216   1.270       .  A
O209       Cr217   2.024       .  S
O209        C210   1.254       .  A
C210        O211   1.240       .  A
C210       C1560   1.488   1_545  S
O211       Cr218   1.973       .  S
O212       Cr218   1.987       .  S
O212        C213   1.276       .  A
C213        O214   1.259       .  A
C213        C623   1.450       .  S
O214       Cr219   1.939       .  S
O215       Cr219   2.028       .  S
O215        C216   1.274       .  A
C216        C525   1.514       .  S
Cr217       O220   1.775       .  S
Cr218       O220   1.782       .  S
Cr219       O220   1.770       .  S
O221       Cr239   2.038       .  S
O221        C229   1.276       .  A
O222       Cr239   1.983       .  S
O222        C223   1.258       .  A
C223        O224   1.261       .  A
C223        C833   1.466       .  S
O224       Cr240   1.988       .  S
O225       Cr240   1.950       .  S
O225        C226   1.247       .  A
C226        O227   1.273       .  A
C226        C606   1.494       .  S
O227       Cr241   2.058       .  S
O228       Cr241   1.957       .  S
O228        C229   1.260       .  A
C229        C480   1.493       .  S
O230       Cr239   1.992       .  S
O230        C238   1.265       .  A
O231       Cr239   2.052       .  S
O231        C232   1.278       .  A
C232        O233   1.249       .  A
C232        C595   1.475       .  S
O233       Cr240   1.936       .  S
O234       Cr240   2.006       .  S
O234        C235   1.267       .  A
C235        O236   1.252       .  A
C235        C494   1.455       .  S
O236       Cr241   1.924       .  S
O237       Cr241   2.046       .  S
O237        C238   1.274       .  A
C238        C522   1.505       .  S
Cr239       O242   1.757       .  S
Cr240       O242   1.765       .  S
Cr241       O242   1.758       .  S
O243       Cr261   1.993       .  S
O243        C251   1.262       .  A
O244       Cr261   2.042       .  S
O244        C245   1.276       .  A
C245        O246   1.257       .  A
C245        C466   1.477       .  S
O246       Cr262   1.950       .  S
O247       Cr262   2.053       .  S
O247        C248   1.274       .  A
C248        O249   1.248       .  A
C248        C539   1.487       .  S
O249       Cr263   1.955       .  S
O250       Cr263   1.990       .  S
O250        C251   1.261       .  A
C251        C802   1.479       .  S
O252       Cr261   2.054       .  S
O252        C260   1.280       .  A
O253       Cr261   2.003       .  S
O253        C254   1.267       .  A
C254        O255   1.274       .  A
C254        C581   1.512       .  S
O255       Cr262   2.033       .  S
O256       Cr262   1.926       .  S
O256        C257   1.250       .  A
C257        O258   1.265       .  A
C257        C497   1.455       .  S
O258       Cr263   2.003       .  S
O259       Cr263   1.932       .  S
O259        C260   1.249       .  A
C260        C550   1.489       .  S
Cr261       O264   1.758       .  S
Cr262       O264   1.754       .  S
Cr263       O264   1.758       .  S
O265       Cr283   2.011       .  S
O265        C273   1.266       .  A
O266       Cr283   2.035       .  S
O266        C267   1.273       .  A
C267        O268   1.258       .  A
C267        C567   1.483       .  S
O268       Cr284   1.957       .  S
O269       Cr284   2.058       .  S
O269        C270   1.274       .  A
C270        O271   1.246       .  A
C270        C424   1.477       .  S
O271       Cr285   1.943       .  S
O272       Cr285   1.995       .  S
O272        C273   1.262       .  A
C273        C732   1.503       .  S
O274       Cr283   2.047       .  S
O274        C282   1.277       .  A
O275       Cr283   2.005       .  S
O275        C276   1.269       .  A
C276        O277   1.275       .  A
C276        C413   1.519       .  S
O277       Cr284   2.035       .  S
O278       Cr284   1.932       .  S
O278        C279   1.249       .  A
C279        O280   1.265       .  A
C279        C452   1.451       .  S
O280       Cr285   2.012       .  S
O281       Cr285   1.938       .  S
O281        C282   1.251       .  A
C282       C1465   1.489   1_545  S
Cr283       O286   1.760       .  S
Cr284       O286   1.755       .  S
Cr285       O286   1.756       .  S
O287       Cr305   2.048       .  S
O287        C295   1.278       .  A
O288       Cr305   2.005       .  S
O288        C289   1.264       .  A
C289        O290   1.261       .  A
C289        C676   1.490       .  S
O290       Cr306   1.990       .  S
O291       Cr306   1.953       .  S
O291        C292   1.252       .  A
C292        O293   1.271       .  A
C292        C396   1.492       .  S
O293       Cr307   2.042       .  S
O294       Cr307   1.956       .  S
O294        C295   1.257       .  A
C295        C508   1.501       .  S
O296       Cr305   2.005       .  S
O296        C304   1.267       .  A
O297       Cr305   2.057       .  S
O297        C298   1.279       .  A
C298        O299   1.249       .  A
C298        C382   1.481       .  S
O299       Cr306   1.931       .  S
O300       Cr306   2.001       .  S
O300        C301   1.264       .  A
C301        O302   1.253       .  A
C301        C455   1.453       .  S
O302       Cr307   1.942       .  S
O303       Cr307   2.027       .  S
O303        C304   1.272       .  A
C304        C368   1.514       .  S
Cr305       O308   1.763       .  S
Cr306       O308   1.759       .  S
Cr307       O308   1.756       .  S
O309       Cr327   2.030       .  S
O309        C317   1.273       .  A
O310       Cr327   2.000       .  S
O310        C311   1.261       .  A
C311        O312   1.262       .  A
C311        C637   1.479       .  S
O312       Cr328   1.997       .  S
O313       Cr328   1.937       .  S
O313        C314   1.244       .  A
C314        O315   1.271       .  A
C314        C438   1.483       .  S
O315       Cr329   2.050       .  S
O316       Cr329   1.962       .  S
O316        C317   1.258       .  A
C317        C483   1.483       .  S
O318       Cr327   1.997       .  S
O318        C326   1.267       .  A
O319       Cr327   2.050       .  S
O319        C320   1.279       .  A
C320        O321   1.248       .  A
C320        C427   1.491       .  S
O321       Cr328   1.936       .  S
O322       Cr328   2.010       .  S
O322        C323   1.266       .  A
C323        O324   1.251       .  A
C323        C354   1.446       .  S
O324       Cr329   1.923       .  S
O325       Cr329   2.038       .  S
O325        C326   1.277       .  A
C326        C371   1.513       .  S
Cr327       O330   1.759       .  S
Cr328       O330   1.758       .  S
Cr329       O330   1.759       .  S
O331       Cr349   2.000       .  S
O331        C339   1.262       .  A
O332       Cr349   2.025       .  S
O332        C333   1.270       .  A
C333        O334   1.256       .  A
C333        C469   1.469       .  S
O334       Cr350   1.966       .  S
O335       Cr350   2.042       .  S
O335        C336   1.273       .  A
C336        O337   1.248       .  A
C336        C385   1.490       .  S
O337       Cr351   1.950       .  S
O338       Cr351   1.996       .  S
O338        C339   1.262       .  A
C339        C651   1.478       .  S
O340       Cr349   2.048       .  S
O340        C348   1.276       .  A
O341       Cr349   2.002       .  S
O341        C342   1.269       .  A
C342        O343   1.276       .  A
C342        C410   1.514       .  S
O343       Cr350   2.038       .  S
O344       Cr350   1.927       .  S
O344        C345   1.251       .  A
C345        O346   1.265       .  A
C345        C357   1.446       .  S
O346       Cr351   2.004       .  S
O347       Cr351   1.939       .  S
O347        C348   1.251       .  A
C348        C399   1.480       .  S
Cr349       O352   1.761       .  S
Cr350       O352   1.756       .  S
Cr351       O352   1.762       .  S
C353        C354   1.401       .  A
C353        C358   1.386       .  A
C353        H360   1.086       .  S
C354        C355   1.414       .  A
C355        C356   1.387       .  A
C355        N362   1.438       .  S
C356        C357   1.401       .  A
C356        H361   1.086       .  S
C357        C358   1.413       .  A
C358        N359   1.438       .  S
N359        H363   1.046       .  S
N359        H364   1.037       .  S
N362        H365   1.037       .  S
N362        H366   1.046       .  S
C367        C368   1.410       .  A
C367        C372   1.417       .  A
C367        H374   1.083       .  S
C368        C369   1.418       .  A
C369        C370   1.419       .  A
C369        N376   1.437       .  S
C370        C371   1.410       .  A
C370        H375   1.083       .  S
C371        C372   1.419       .  A
C372        N373   1.438       .  S
N373        H377   1.046       .  S
N373        H378   1.045       .  S
N376        H379   1.046       .  S
N376        H380   1.046       .  S
C381        C382   1.399       .  A
C381        C386   1.406       .  A
C381        H388   1.084       .  S
C382        C383   1.419       .  A
C383        C384   1.405       .  A
C383        N390   1.440       .  S
C384        C385   1.401       .  A
C384        H389   1.083       .  S
C385        C386   1.420       .  A
C386        N387   1.433       .  S
N387        H391   1.046       .  S
N387        H392   1.046       .  S
N390        H393   1.045       .  S
N390        H394   1.046       .  S
C395        C396   1.412       .  A
C395       C1424   1.401       .  A
C395        H402   1.081       .  S
C396        C397   1.416       .  A
C397        C398   1.399   1_545  A
C397        N404   1.433       .  S
C398       C1423   1.408       .  A
C398        H403   1.085       .  S
C399        C400   1.414       .  A
C399       C1422   1.408       .  A
C400       C1419   1.401       .  A
C400        N401   1.438       .  S
N401        H405   1.045       .  S
N401        H406   1.041       .  S
N404        H407   1.045       .  S
N404        H408   1.044       .  S
C409        C414   1.419       .  A
C409       C1434   1.408   1_545  A
C409        H416   1.083       .  S
C410        C411   1.419       .  A
C410       C1433   1.408       .  A
C411        C412   1.419       .  A
C411        N418   1.438       .  S
C412       C1437   1.411       .  A
C412        H417   1.083       .  S
C413        C414   1.422       .  A
C413       C1436   1.411   1_545  A
C414        N415   1.437       .  S
N415        H419   1.046       .  S
N415        H420   1.045       .  S
N418        H421   1.045       .  S
N418        H422   1.046       .  S
C423        C424   1.393       .  A
C423        C428   1.402       .  A
C423        H430   1.084       .  S
C424        C425   1.417       .  A
C425        C426   1.399       .  A
C425        N432   1.433       .  S
C426        C427   1.398       .  A
C426        H431   1.084       .  S
C427        C428   1.432       .  A
C428        N429   1.433       .  S
N429        H433   1.045       .  S
N429        H434   1.046       .  S
N432        H435   1.045       .  S
N432        H436   1.046       .  S
C437        C438   1.413       .  A
C437        C442   1.403       .  A
C437        H444   1.083       .  S
C438        C439   1.403       .  A
C439       C1464   1.406       .  A
C439        N446   1.437       .  S
C440       C1463   1.406       .  A
C440       C1465   1.416       .  A
C440        H445   1.083   1_565  S
C441       C1306   1.489       .  S
C441        C442   1.408       .  A
C441       C1464   1.416       .  A
C442        N443   1.438       .  S
N443        H447   1.046       .  S
N443        H448   1.046       .  S
N446        H449   1.046       .  S
N446       H1474   1.046       .  S
H450       N1470   1.046       .  S
C451        C452   1.402       .  A
C451        C456   1.393       .  A
C451        H458   1.084       .  S
C452        C453   1.404       .  A
C453        C454   1.390       .  A
C453        N460   1.433       .  S
C454        C455   1.402       .  A
C454        H459   1.085       .  S
C455        C456   1.410       .  A
C456        N457   1.439       .  S
N457        H461   1.046       .  S
N457        H462   1.045       .  S
N460        H463   1.046       .  S
N460        H464   1.046       .  S
C465        C466   1.405       .  A
C465        C470   1.399       .  A
C465        H472   1.084       .  S
C466        C467   1.417       .  A
C467        C468   1.408       .  A
C467        N474   1.437       .  S
C468        C469   1.404       .  A
C468        H473   1.084       .  S
C469        C470   1.405       .  A
C470        N471   1.439       .  S
N471        H475   1.046       .  S
N471        H476   1.045       .  S
N474        H477   1.043       .  S
N474        H478   1.045       .  S
C479        C480   1.410       .  A
C479        C484   1.405       .  A
C479        H486   1.083       .  S
C480        C481   1.414       .  A
C481        C482   1.408       .  A
C481        N488   1.437       .  S
C482        C483   1.406       .  A
C482        H487   1.084       .  S
C483        C484   1.410       .  A
C484        N485   1.439       .  S
N485        H489   1.046       .  S
N485        H490   1.046       .  S
N488        H491   1.046       .  S
N488        H492   1.046       .  S
C493        C494   1.406       .  A
C493        C498   1.388       .  A
C493        H500   1.084       .  S
C494        C495   1.407   1_556  A
C495        C496   1.390       .  A
C495        N502   1.439       .  S
C496        C497   1.407       .  A
C496        H501   1.084       .  S
C497        C498   1.406   1_554  A
C498        N499   1.439       .  S
N499        H503   1.046       .  S
N499        H504   1.046       .  S
N502        H505   1.045       .  S
N502        H506   1.046       .  S
C507        C508   1.405       .  A
C507        C512   1.406       .  A
C507        H514   1.084       .  S
C508        C509   1.425       .  A
C509        C510   1.408       .  A
C509        N516   1.439       .  S
C510        C511   1.398       .  A
C510        H515   1.084       .  S
C511        C512   1.419       .  A
C512        N513   1.438       .  S
N513        H517   1.046       .  S
N513        H518   1.041       .  S
N516        H519   1.046       .  S
N516        H520   1.046       .  S
C521        C522   1.399       .  A
C521       C1550   1.403       .  A
C521        H528   1.085       .  S
C522        C523   1.424       .  A
C523        C524   1.423       .  A
C523        N530   1.437       .  S
C524       C1549   1.411       .  A
C524        H529   1.083       .  S
C525        C526   1.424       .  A
C525       C1548   1.411       .  A
C526       C1545   1.403   1_545  A
C526        N527   1.432       .  S
N527        H531   1.044       .  S
N527        H532   1.037       .  S
N530        H533   1.043       .  S
N530        H534   1.045       .  S
C535        C536   1.405   1_554  A
C535        C540   1.405       .  A
C535        H542   1.084       .  S
C536       C1234   1.488       .  S
C536        C537   1.411   1_556  A
C537        C538   1.408       .  A
C537        N544   1.434   1_554  S
C538        C539   1.404       .  A
C538        H543   1.083       .  S
C539        C540   1.419       .  A
C540        N541   1.434       .  S
N541        H545   1.044       .  S
N541        H546   1.046       .  S
N544        H548   1.046       .  S
N544       H1571   1.044       .  S
H547       N1568   1.044   1_545  S
C549        C550   1.396       .  A
C549        C554   1.401   1_554  A
C549        H556   1.084       .  S
C550        C551   1.427   1_554  A
C551        C552   1.409       .  A
C551        N558   1.439       .  S
C552        C553   1.395       .  A
C552        H557   1.084       .  S
C553        C554   1.421       .  A
C554        N555   1.439       .  S
N555        H559   1.046   1_556  S
N555        H560   1.043       .  S
N558        H561   1.046       .  S
N558        H562   1.046       .  S
C563        C564   1.405       .  A
C563        C568   1.413       .  A
C563        H570   1.084       .  S
C564        C565   1.408       .  A
C565        C566   1.399       .  A
C565        N572   1.439       .  S
C566        C567   1.405       .  A
C566        H571   1.084       .  S
C567        C568   1.412       .  A
C568        N569   1.437       .  S
N569        H573   1.046       .  S
N569        H574   1.046       .  S
N572        H575   1.045       .  S
N572        H576   1.046       .  S
C577        C578   1.410       .  A
C577        C582   1.419       .  A
C577        H584   1.083       .  S
C578        C579   1.421       .  A
C579        C580   1.417       .  A
C579        N586   1.438       .  S
C580        C581   1.408       .  A
C580        H585   1.083       .  S
C581        C582   1.417       .  A
C582        N583   1.437       .  S
N583        H587   1.046       .  S
N583        H588   1.046       .  S
N586        H589   1.045       .  S
N586        H590   1.046       .  S
C591        C592   1.408       .  A
C591       C1620   1.415   1_545  A
C591        H598   1.080       .  S
C592        C593   1.422       .  A
C593        C594   1.397   1_554  A
C593        N600   1.421       .  S
C594       C1619   1.392   1_545  A
C594        H599   1.085       .  S
C595        C596   1.412   1_556  A
C595       C1618   1.392       .  A
C596       C1615   1.415       .  A
C596        N597   1.437       .  S
N597        H601   1.046       .  S
N597        H602   1.046       .  S
N600        H603   1.044       .  S
N600        H604   1.038       .  S
C605        C606   1.405       .  A
C605        C610   1.410   1_556  A
C605        H612   1.083       .  S
C606        C607   1.419       .  A
C607        C608   1.407   1_556  A
C607        N614   1.431       .  S
C608        C609   1.398       .  A
C608        H613   1.084       .  S
C609        C610   1.416       .  A
C610        N611   1.439       .  S
N611        H615   1.046       .  S
N611        H616   1.045       .  S
N614        H617   1.046       .  S
N614        H618   1.045       .  S
C619        C620   1.388   1_556  A
C619        C624   1.383       .  A
C619        H626   1.085       .  S
C620        C621   1.419       .  A
C621        C622   1.394       .  A
C621        N628   1.439       .  S
C622        C623   1.392   1_554  A
C622        H627   1.084       .  S
C623        C624   1.422       .  A
C624        N625   1.442       .  S
N625        H629   1.046       .  S
N625        H630   1.043       .  S
N628        H631   1.045       .  S
N628        H632   1.046       .  S
C633        C634   1.408       .  A
C633        C638   1.407       .  A
C633        H640   1.077       .  S
C634        C635   1.405   1_655  A
C635        C636   1.410       .  A
C635        N642   1.437       .  S
C636        C637   1.409       .  A
C636        H641   1.080       .  S
C637        C638   1.403   1_455  A
C638        N639   1.437       .  S
N639        H643   1.046       .  S
N639        H644   1.046   1_655  S
N642        H645   1.046   1_455  S
N642        H646   1.046       .  S
C647        C648   1.406       .  A
C647        C652   1.405       .  A
C647        H654   1.073       .  S
C648        C649   1.409       .  A
C649        C650   1.414       .  A
C649        N656   1.437       .  S
C650        C651   1.409       .  A
C650        H655   1.084       .  S
C651        C652   1.403       .  A
C652        N653   1.438       .  S
N653        H657   1.045       .  S
N653        H658   1.045       .  S
N656        H659   1.045       .  S
N656        H660   1.046       .  S
C661        C662   1.393       .  A
C661        C666   1.390       .  A
C661        H668   1.084       .  S
C662        C663   1.412       .  A
C663        C664   1.390       .  A
C663        N670   1.433       .  S
C664        C665   1.393       .  A
C664        H669   1.084       .  S
C665        C666   1.412       .  A
C666        N667   1.433       .  S
N667        H671   1.046       .  S
N667        H672   1.045       .  S
N670        H673   1.046       .  S
N670        H674   1.046       .  S
C675        C676   1.407       .  A
C675        C680   1.401       .  A
C675        H682   1.083       .  S
C676        C677   1.410       .  A
C677        C678   1.412       .  A
C677        N684   1.437       .  S
C678        C679   1.409       .  A
C678        H683   1.082       .  S
C679        C680   1.415       .  A
C680        N681   1.439       .  S
N681        H685   1.045       .  S
N681        H686   1.041       .  S
N684        H687   1.046       .  S
N684        H688   1.046       .  S
C689        C694   1.418       .  A
C689       C1714   1.409   1_545  A
C689        H696   1.083       .  S
C690        C691   1.421       .  A
C690       C1713   1.409       .  A
C691        C692   1.414       .  A
C691        N698   1.437       .  S
C692       C1717   1.405       .  A
C692        H697   1.084       .  S
C693        C694   1.418       .  A
C693       C1716   1.405   1_545  A
C694        N695   1.437       .  S
N695        H699   1.046       .  S
N695        H700   1.045       .  S
N698        H701   1.044       .  S
N698        H702   1.046       .  S
C703        C704   1.408       .  A
C703        C708   1.410       .  A
C703        H710   1.084       .  S
C704       C1146   1.480       .  S
C704        C705   1.414       .  A
C705        C706   1.399       .  A
C705        N712   1.438       .  S
C706        C707   1.409       .  A
C706        H711   1.078       .  S
C707        C708   1.414       .  A
C708        N709   1.437       .  S
N709        H713   1.046       .  S
N709        H714   1.045       .  S
N712        H716   1.045       .  S
N712       H1739   1.040       .  S
H715       N1736   1.040       .  S
C717        C718   1.402       .  A
C717        C722   1.411       .  A
C717        H724   1.084       .  S
C718        C719   1.420       .  A
C719        C720   1.401       .  A
C719        N726   1.441       .  S
C720        C721   1.403       .  A
C720        H725   1.084       .  S
C721        C722   1.418       .  A
C722        N723   1.438       .  S
N723        H727   1.046       .  S
N723        H728   1.046       .  S
N726        H729   1.043       .  S
N726        H730   1.046       .  S
C731        C732   1.407       .  A
C731        C736   1.408   1_455  A
C731        H738   1.084       .  S
C732        C733   1.422       .  A
C733        C734   1.409   1_455  A
C733        N740   1.438       .  S
C734        C735   1.403       .  A
C734        H739   1.084       .  S
C735        C736   1.421       .  A
C736        N737   1.432       .  S
N737        H741   1.045       .  S
N737        H742   1.045       .  S
N740        H743   1.045       .  S
N740        H744   1.046       .  S
C745        C746   1.405       .  A
C745        C750   1.410       .  A
C745        H752   1.084       .  S
C746        C747   1.418       .  A
C747        C748   1.418       .  A
C747        N754   1.437       .  S
C748        C749   1.410       .  A
C748        H753   1.083       .  S
C749        C750   1.427       .  A
C750        N751   1.432       .  S
N751        H755   1.045       .  S
N751        H756   1.045       .  S
N754        H757   1.045       .  S
N754        H758   1.046       .  S
C759        C764   1.400       .  A
C759       C1784   1.398   1_545  A
C759        H766   1.084       .  S
C760        C761   1.427       .  A
C760       C1783   1.398       .  A
C761       C1786   1.409       .  A
C761        N768   1.438       .  S
C762        C763   1.394       .  A
C762       C1785   1.409   1_545  A
C762        H767   1.084       .  S
C763        C764   1.417       .  A
C764        N765   1.434       .  S
N765        H769   1.046       .  S
N765        H770   1.046       .  S
N768        H771   1.046       .  S
N768        H772   1.046       .  S
C773        C774   1.407       .  A
C773        C778   1.406       .  A
C773        H780   1.084       .  S
C774        C775   1.404       .  A
C775        C776   1.406       .  A
C775        N782   1.438       .  S
C776        C777   1.415       .  A
C776        H781   1.083       .  S
C777        C778   1.414       .  A
C778        N779   1.437       .  S
N779        H783   1.046       .  S
N779        H784   1.045       .  S
N782        H785   1.046       .  S
N782        H786   1.046       .  S
C787        C788   1.393       .  A
C787        C792   1.393       .  A
C787        H794   1.084       .  S
C788        C789   1.410       .  A
C789        C790   1.393       .  A
C789        N796   1.439       .  S
C790        C791   1.393       .  A
C790        H795   1.084       .  S
C791        C792   1.410       .  A
C792        N793   1.439       .  S
N793        H797   1.046       .  S
N793        H798   1.045       .  S
N796        H799   1.045       .  S
N796        H800   1.046       .  S
C801        C802   1.406       .  A
C801        C806   1.410       .  A
C801        H808   1.084       .  S
C802        C803   1.415       .  A
C803        C804   1.400       .  A
C803        N810   1.440       .  S
C804        C805   1.406       .  A
C804        H809   1.083       .  S
C805        C806   1.413       .  A
C806        N807   1.437       .  S
N807        H811   1.046       .  S
N807        H812   1.046       .  S
N810        H813   1.043       .  S
N810        H814   1.045       .  S
C815        C816   1.405       .  A
C815        C820   1.407       .  A
C815        H822   1.084       .  S
C816        C817   1.418       .  A
C817        C818   1.400       .  A
C817        N824   1.439       .  S
C818        C819   1.397       .  A
C818        H823   1.085       .  S
C819        C820   1.416       .  A
C820        N821   1.438       .  S
N821        H825   1.045       .  S
N821        H826   1.044       .  S
N824        H827   1.045       .  S
N824        H828   1.046       .  S
C829        C830   1.403       .  A
C829        C834   1.398       .  A
C829        H836   1.075       .  S
C830        C831   1.403   1_655  A
C831        C832   1.409       .  A
C831        N838   1.436       .  S
C832        C833   1.408       .  A
C832        H837   1.083       .  S
C833        C834   1.405   1_455  A
C834        N835   1.438       .  S
N835        H839   1.046       .  S
N835        H840   1.043   1_655  S
N838        H841   1.046   1_455  S
N838        H842   1.045       .  S
C843        C844   1.403       .  A
C843        C848   1.406       .  A
C843        H850   1.084       .  S
C844        C845   1.406       .  A
C845        C846   1.398       .  A
C845        N852   1.439       .  S
C846        C847   1.403       .  A
C846        H851   1.085       .  S
C847        C848   1.417       .  A
C848        N849   1.437       .  S
N849        H853   1.045       .  S
N849        H854   1.043       .  S
N852        H855   1.045       .  S
N852        H856   1.046       .  S
C857        C858   1.394   1_554  A
C857        C862   1.388       .  A
C857        H864   1.084       .  S
C858        C859   1.413       .  A
C859        C860   1.389       .  A
C859        N866   1.439       .  S
C860        C861   1.394   1_556  A
C860        H865   1.084       .  S
C861        C862   1.410       .  A
C862        N863   1.434       .  S
N863        H867   1.046       .  S
N863        H868   1.046       .  S
N866        H869   1.046       .  S
N866        H870   1.046       .  S
C871        C872   1.394       .  A
C871        C876   1.401       .  A
C871        H878   1.084       .  S
C872        C873   1.420       .  A
C873        C874   1.410       .  A
C873        N880   1.432       .  S
C874        C875   1.396       .  A
C874        H879   1.084       .  S
C875        C876   1.425       .  A
C876        N877   1.435       .  S
N877        H881   1.043       .  S
N877        H882   1.040       .  S
N880        H883   1.046       .  S
N880        H884   1.046       .  S
C885        C886   1.404       .  A
C885        C890   1.406       .  A
C885        H892   1.084       .  S
C886        C887   1.417       .  A
C887        C888   1.402       .  A
C887        N894   1.439       .  S
C888        C889   1.400       .  A
C888        H893   1.084       .  S
C889        C890   1.419       .  A
C890        N891   1.438       .  S
N891        H895   1.046       .  S
N891        H896   1.042       .  S
N894        H897   1.046       .  S
N894        H898   1.046       .  S
C899        C900   1.409       .  A
C899        C904   1.413       .  A
C899        H906   1.083       .  S
C900        C901   1.424       .  A
C901        C902   1.408       .  A
C901        N908   1.432       .  S
C902        C903   1.405       .  A
C902        H907   1.084       .  S
C903        C904   1.415       .  A
C904        N905   1.437       .  S
N905        H909   1.046       .  S
N905        H910   1.045       .  S
N908        H911   1.045       .  S
N908        H912   1.044       .  S
C913        C918   1.406   1_565  A
C913       C1938   1.409   1_556  A
C913       H1944   1.084       .  S
C914       C1937   1.409   1_554  A
C914       C1939   1.403       .  A
C915        C916   1.402   1_554  A
C915       C1938   1.403   1_545  A
C915       N1946   1.438       .  S
C916        C917   1.415       .  A
C916        H921   1.083       .  S
C917        C918   1.412       .  A
C918        N919   1.438       .  S
N919        H923   1.046       .  S
N919        H924   1.044       .  S
H920       C1937   1.084       .  S
N922       C1939   1.438       .  S
N922        H925   1.046       .  S
N922        H926   1.046       .  S
C927        C928   1.416       .  A
C927        C932   1.411   1_554  A
C927        H934   1.081       .  S
C928        C929   1.415       .  A
C929        C930   1.410       .  A
C929        N936   1.438       .  S
C930        C931   1.408   1_554  A
C930        H935   1.084       .  S
C931        C932   1.405       .  A
C932        N933   1.437       .  S
N933        H937   1.045       .  S
N933        H938   1.046       .  S
N936        H939   1.045       .  S
N936        H940   1.046       .  S
C941        C942   1.401       .  A
C941        C946   1.413   1_655  A
C941        H948   1.083       .  S
C942        C943   1.425       .  A
C943        C944   1.399   1_655  A
C943        N950   1.431       .  S
C944        C945   1.394       .  A
C944        H949   1.084       .  S
C945        C946   1.416       .  A
C946        N947   1.434       .  S
N947        H951   1.045       .  S
N947        H952   1.046       .  S
N950        H953   1.046       .  S
N950        H954   1.043       .  S
C955        C956   1.408       .  A
C955        C960   1.398       .  A
C955        H962   1.084       .  S
C956        C957   1.417       .  A
C957        C958   1.411       .  A
C957        N964   1.437       .  S
C958        C959   1.404       .  A
C958        H963   1.084       .  S
C959        C960   1.417       .  A
C960        N961   1.439       .  S
N961        H965   1.045       .  S
N961        H966   1.041       .  S
N964        H967   1.045       .  S
N964        H968   1.046       .  S
C969        C970   1.411       .  A
C969        C974   1.412       .  A
C969        H976   1.083       .  S
C970       C1995   1.421   1_545  A
C971        C972   1.421       .  A
C971       C1994   1.421       .  A
C971        N978   1.437       .  S
C972        C973   1.409       .  A
C972        H977   1.083       .  S
C973       C1998   1.415       .  A
C974       C1997   1.415   1_545  A
C974        N975   1.438       .  S
N975        H979   1.046       .  S
N975       H2004   1.046       .  S
N978        H981   1.045       .  S
N978        H982   1.046       .  S
H980       N1999   1.046       .  S
C983        C984   1.404   1_556  A
C983        C988   1.405       .  A
C983        H990   1.084       .  S
C984       C1042   1.486       .  S
C984        C985   1.424       .  A
C985        C986   1.405   1_554  A
C985        N992   1.438       .  S
C986        C987   1.404       .  A
C986        H991   1.084       .  S
C987        C988   1.407       .  A
C988        N989   1.433       .  S
N989        H993   1.045       .  S
N989        H994   1.046       .  S
N992        H996   1.045       .  S
N992       H2019   1.040       .  S
H995       N2016   1.040       .  S
C997        C998   1.410       .  A
C997       C1002   1.391   1_554  A
C997       H1004   1.084   1_554  S
C998        C999   1.419       .  A
C999       C1000   1.412       .  A
C999       N1006   1.437       .  S
C1000      C1001   1.410   1_554  A
C1000      H1005   1.084       .  S
C1001      C1002   1.406       .  A
C1002      N1003   1.431       .  S
N1003      H1007   1.045       .  S
N1003      H1008   1.045       .  S
N1006      H1009   1.040       .  S
N1006      H1010   1.046       .  S
C1011      C1012   1.394   1_556  A
C1011      C1016   1.392       .  A
C1011      H1018   1.085       .  S
C1012      C1013   1.403       .  A
C1013      C1014   1.397       .  A
C1013      N1020   1.438       .  S
C1014      C1015   1.405   1_554  A
C1014      H1019   1.084       .  S
C1015      C1016   1.416       .  A
C1016      N1017   1.439       .  S
N1017      H1021   1.046       .  S
N1017      H1022   1.046       .  S
N1020      H1023   1.046       .  S
N1020      H1024   1.046       .  S
O1025     Cr1043   2.072       .  S
O1025      C1033   1.291       .  A
O1026     Cr1043   1.986       .  S
O1026      C1027   1.262       .  A
C1027      O1028   1.261       .  A
C1027      C1983   1.478       .  S
O1028     Cr1044   1.982       .  S
O1029     Cr1044   2.030       .  S
O1029      C1030   1.263       .  A
C1030      O1031   1.247       .  A
C1030      C2022   1.489       .  S
O1031     Cr1045   1.954       .  S
O1032     Cr1045   1.939       .  S
O1032      C1033   1.262       .  A
C1033      C1966   1.492       .  S
O1034     Cr1043   2.010       .  S
O1034      C1042   1.249       .  A
O1035     Cr1043   2.023       .  S
O1035      C1036   1.270       .  A
C1036      O1037   1.264       .  A
C1036      C1994   1.516       .  S
O1037     Cr1044   1.988       .  S
O1038     Cr1044   1.979       .  S
O1038      C1039   1.271       .  A
C1039      O1040   1.268       .  A
C1039      C2036   1.437       .  S
O1040     Cr1045   1.967       .  S
O1041     Cr1045   1.967       .  S
O1041      C1042   1.241       .  A
Cr1043     O1046   1.772       .  S
Cr1044     O1046   1.770       .  S
Cr1045     O1046   1.778       .  S
O1047     Cr1065   2.040       .  S
O1047      C1055   1.275       .  A
O1048     Cr1065   1.987       .  S
O1048      C1049   1.260       .  A
C1049      O1050   1.270       .  A
C1049      C1896   1.485       .  S
O1050     Cr1066   2.013       .  S
O1051     Cr1066   1.926       .  S
O1051      C1052   1.246       .  A
C1052      O1053   1.270       .  A
C1052      C1941   1.488       .  S
O1053     Cr1067   2.049       .  S
O1054     Cr1067   1.953       .  S
O1054      C1055   1.257       .  A
C1055      C1910   1.485       .  S
O1056     Cr1065   1.994       .  S
O1056      C1064   1.267       .  A
O1057     Cr1065   2.057       .  S
O1057      C1058   1.278       .  A
C1058      O1059   1.250       .  A
C1058      C1955   1.487       .  S
O1059     Cr1066   1.944       .  S
O1060     Cr1066   2.015       .  S
O1060      C1061   1.268       .  A
C1061      O1062   1.250       .  A
C1061      C2039   1.464       .  S
O1062     Cr1067   1.934       .  S
O1063     Cr1067   2.026       .  S
O1063      C1064   1.271       .  A
C1064      C1924   1.509       .  S
Cr1065     O1068   1.763       .  S
Cr1066     O1068   1.757       .  S
Cr1067     O1068   1.755       .  S
O1069     Cr1087   2.024       .  S
O1069      C1077   1.272       .  A
O1070     Cr1087   1.986       .  S
O1070      C1071   1.259       .  A
C1071      O1072   1.264       .  A
C1071      C1854   1.473       .  S
O1072     Cr1088   1.995       .  S
O1073     Cr1088   1.958       .  S
O1073      C1074   1.250       .  A
C1074      O1075   1.267       .  A
C1074      C2011   1.482       .  S
O1075     Cr1089   2.038       .  S
O1076     Cr1089   1.965       .  S
O1076      C1077   1.259       .  A
C1077      C1868   1.466       .  S
O1078     Cr1087   1.989       .  S
O1078      C1086   1.263       .  A
O1079     Cr1087   2.037       .  S
O1079      C1080   1.274       .  A
C1080      O1081   1.251       .  A
C1080      C2025   1.478       .  S
O1081     Cr1088   1.948       .  S
O1082     Cr1088   2.003       .  S
O1082      C1083   1.266       .  A
C1083      O1084   1.251       .  A
C1083      C1882   1.443       .  S
O1084     Cr1089   1.928       .  S
O1085     Cr1089   2.023       .  S
O1085      C1086   1.269       .  A
C1086      C1927   1.499       .  S
Cr1087     O1090   1.768       .  S
Cr1088     O1090   1.770       .  S
Cr1089     O1090   1.763       .  S
O1091     Cr1109   1.990       .  S
O1091      C1099   1.262       .  A
O1092     Cr1109   2.024       .  S
O1092      C1093   1.271       .  A
C1093      O1094   1.258       .  A
C1093      C1843   1.470       .  S
O1094     Cr1110   1.968       .  S
O1095     Cr1110   2.058       .  S
O1095      C1096   1.275       .  A
C1096      O1097   1.249       .  A
C1096      C1952   1.500       .  S
O1097     Cr1111   1.950       .  S
O1098     Cr1111   1.998       .  S
O1098      C1099   1.265       .  A
C1099      C1829   1.487       .  S
O1100     Cr1109   2.041       .  S
O1100      C1108   1.274       .  A
O1101     Cr1109   1.988       .  S
O1101      C1102   1.267       .  A
C1102      O1103   1.278       .  A
C1102      C1997   1.509       .  S
O1103     Cr1110   2.044       .  S
O1104     Cr1110   1.927       .  S
O1104      C1105   1.248       .  A
C1105      O1106   1.266       .  A
C1105      C1885   1.444       .  S
O1106     Cr1111   2.001       .  S
O1107     Cr1111   1.940       .  S
O1107      C1108   1.249       .  A
C1108      C1938   1.476       .  S
Cr1109     O1112   1.762       .  S
Cr1110     O1112   1.757       .  S
Cr1111     O1112   1.756       .  S
O1113     Cr1131   2.001       .  S
O1113      C1121   1.263       .  A
O1114     Cr1131   2.031       .  S
O1114      C1115   1.272       .  A
C1115      O1116   1.259       .  A
C1115      C1980   1.495       .  S
O1116     Cr1132   1.961       .  S
O1117     Cr1132   2.051       .  S
O1117      C1118   1.272       .  A
C1118      O1119   1.247       .  A
C1118      C1787   1.478       .  S
O1119     Cr1133   1.945       .  S
O1120     Cr1133   2.000       .  S
O1120      C1121   1.265       .  A
C1121      C1759   1.498       .  S
O1122     Cr1131   2.051       .  S
O1122      C1130   1.276       .  A
O1123     Cr1131   2.002       .  S
O1123      C1124   1.270       .  A
C1124      O1125   1.275       .  A
C1124      C1770   1.507       .  S
O1125     Cr1132   2.032       .  S
O1126     Cr1132   1.927       .  S
O1126      C1127   1.248       .  A
C1127      O1128   1.265       .  A
C1127      C1812   1.439       .  S
O1128     Cr1133   2.010       .  S
O1129     Cr1133   1.940       .  S
O1129      C1130   1.250       .  A
C1130      C1798   1.478       .  S
Cr1131     O1134   1.763       .  S
Cr1132     O1134   1.757       .  S
Cr1133     O1134   1.758       .  S
O1135     Cr1153   2.026       .  S
O1135      C1143   1.271       .  A
O1136     Cr1153   1.995       .  S
O1136      C1137   1.263       .  A
C1137      O1138   1.265       .  A
C1137      C1703   1.486       .  S
O1138     Cr1154   2.001       .  S
O1139     Cr1154   1.955       .  S
O1139      C1140   1.250       .  A
C1140      O1141   1.272       .  A
C1140      C1745   1.488       .  S
O1141     Cr1155   2.040       .  S
O1142     Cr1155   1.968       .  S
O1142      C1143   1.257       .  A
C1143      C1913   1.477       .  S
O1144     Cr1153   1.994       .  S
O1144      C1152   1.268       .  A
O1145     Cr1153   2.043       .  S
O1145      C1146   1.275       .  A
C1146      O1147   1.252       .  A
O1147     Cr1154   1.951       .  S
O1148     Cr1154   2.007       .  S
O1148      C1149   1.265       .  A
C1149      O1150   1.249       .  A
C1149      C1815   1.439       .  S
O1150     Cr1155   1.929       .  S
O1151     Cr1155   2.034       .  S
O1151      C1152   1.275       .  A
C1152      C1717   1.506       .  S
Cr1153     O1156   1.762       .  S
Cr1154     O1156   1.762       .  S
Cr1155     O1156   1.759       .  S
O1157     Cr1175   1.998       .  S
O1157      C1165   1.264       .  A
O1158     Cr1175   2.041       .  S
O1158      C1159   1.276       .  A
C1159      O1160   1.257       .  A
C1159      C1840   1.483       .  S
O1160     Cr1176   1.951       .  S
O1161     Cr1176   2.046       .  S
O1161      C1162   1.269       .  A
C1162      O1163   1.249       .  A
C1162      C1731   1.493       .  S
O1163     Cr1177   1.949       .  S
O1164     Cr1177   2.004       .  S
O1164      C1165   1.267       .  A
C1165      C1672   1.488       .  S
O1166     Cr1175   2.044       .  S
O1166      C1174   1.274       .  A
O1167     Cr1175   2.011       .  S
O1167      C1168   1.268       .  A
C1168      O1169   1.269       .  A
C1168      C1773   1.517       .  S
O1169     Cr1176   2.023       .  S
O1170     Cr1176   1.931       .  S
O1170      C1171   1.250       .  A
C1171      O1172   1.268       .  A
C1171      C1686   1.446       .  S
O1172     Cr1177   2.010       .  S
O1173     Cr1177   1.943       .  S
O1173      C1174   1.251       .  A
C1174      C1742   1.477       .  S
Cr1175     O1178   1.766       .  S
Cr1176     O1178   1.760       .  S
Cr1177     O1178   1.759       .  S
O1179     Cr1197   2.032       .  S
O1179      C1187   1.273       .  A
O1180     Cr1197   1.995       .  S
O1180      C1181   1.262       .  A
C1181      O1182   1.265       .  A
C1181      C1658   1.482       .  S
O1182     Cr1198   2.001       .  S
O1183     Cr1198   1.938       .  S
O1183      C1184   1.246       .  A
C1184      O1185   1.270       .  A
C1184      C1801   1.492       .  S
O1185     Cr1199   2.048       .  S
O1186     Cr1199   1.954       .  S
O1186      C1187   1.258       .  A
C1187      C1871   1.472       .  S
O1188     Cr1197   2.006       .  S
O1188      C1196   1.269       .  A
O1189     Cr1197   2.046       .  S
O1189      C1190   1.276       .  A
C1190      O1191   1.249       .  A
C1190      C1784   1.490       .  S
O1191     Cr1198   1.940       .  S
O1192     Cr1198   2.008       .  S
O1192      C1193   1.267       .  A
C1193      O1194   1.250       .  A
C1193      C1689   1.447       .  S
O1194     Cr1199   1.932       .  S
O1195     Cr1199   2.028       .  S
O1195      C1196   1.273       .  A
C1196      C1714   1.513       .  S
Cr1197     O1200   1.764       .  S
Cr1198     O1200   1.758       .  S
Cr1199     O1200   1.760       .  S
O1201     Cr1219   1.987       .  S
O1201      C1209   1.262       .  A
O1202     Cr1219   2.026       .  S
O1202      C1203   1.273       .  A
C1203      O1204   1.261       .  A
C1203      C1588   1.475       .  S
O1204     Cr1220   1.975       .  S
O1205     Cr1220   2.075       .  S
O1205      C1206   1.276       .  A
C1206      O1207   1.251       .  A
C1206      C1616   1.499       .  S
O1207     Cr1221   1.957       .  S
O1208     Cr1221   2.013       .  S
O1208      C1209   1.271       .  A
C1209      C1969   1.482       .  S
O1210     Cr1219   2.046       .  S
O1210      C1218   1.272       .  A
O1211     Cr1219   1.996       .  S
O1211      C1212   1.265       .  A
C1212      O1213   1.276       .  A
C1212      C1602   1.515       .  S
O1213     Cr1220   2.038       .  S
O1214     Cr1220   1.920       .  S
O1214      C1215   1.241       .  A
C1215      O1216   1.268       .  A
C1215      C1644   1.447       .  S
O1216     Cr1221   1.996       .  S
O1217     Cr1221   1.945       .  S
O1217      C1218   1.247       .  A
C1218      C1633   1.480       .  S
Cr1219     O1222   1.765       .  S
Cr1220     O1222   1.762       .  S
Cr1221     O1222   1.758       .  S
O1223     Cr1241   2.009       .  S
O1223      C1231   1.264       .  A
O1224     Cr1241   2.061       .  S
O1224      C1225   1.289       .  A
C1225      O1226   1.263       .  A
C1225      C1899   1.485       .  S
O1226     Cr1242   1.944       .  S
O1227     Cr1242   1.942       .  S
O1227      C1228   1.242       .  A
C1228      O1229   1.270       .  A
C1228      C1577   1.474       .  S
O1229     Cr1243   2.039       .  S
O1230     Cr1243   1.965       .  S
O1230      C1231   1.254       .  A
C1231      C1535   1.483       .  S
O1232     Cr1241   2.017       .  S
O1232      C1240   1.270       .  A
O1233     Cr1241   2.024       .  S
O1233      C1234   1.254       .  A
C1234      O1235   1.240       .  A
O1235     Cr1242   1.973       .  S
O1236     Cr1242   1.987       .  S
O1236      C1237   1.276       .  A
C1237      O1238   1.259       .  A
C1237      C1647   1.450       .  S
O1238     Cr1243   1.939       .  S
O1239     Cr1243   2.028       .  S
O1239      C1240   1.274       .  A
C1240      C1549   1.514       .  S
Cr1241     O1244   1.775       .  S
Cr1242     O1244   1.782       .  S
Cr1243     O1244   1.770       .  S
O1245     Cr1263   2.038       .  S
O1245      C1253   1.276       .  A
O1246     Cr1263   1.983       .  S
O1246      C1247   1.258       .  A
C1247      O1248   1.261       .  A
C1247      C1857   1.466       .  S
O1248     Cr1264   1.988       .  S
O1249     Cr1264   1.950       .  S
O1249      C1250   1.247       .  A
C1250      O1251   1.273       .  A
C1250      C1630   1.494       .  S
O1251     Cr1265   2.058       .  S
O1252     Cr1265   1.957       .  S
O1252      C1253   1.260       .  A
C1253      C1504   1.493       .  S
O1254     Cr1263   1.992       .  S
O1254      C1262   1.265       .  A
O1255     Cr1263   2.052       .  S
O1255      C1256   1.278       .  A
C1256      O1257   1.249       .  A
C1256      C1619   1.475       .  S
O1257     Cr1264   1.936       .  S
O1258     Cr1264   2.006       .  S
O1258      C1259   1.267       .  A
C1259      O1260   1.252       .  A
C1259      C1518   1.455       .  S
O1260     Cr1265   1.924       .  S
O1261     Cr1265   2.046       .  S
O1261      C1262   1.274       .  A
C1262      C1546   1.505       .  S
Cr1263     O1266   1.757       .  S
Cr1264     O1266   1.765       .  S
Cr1265     O1266   1.758       .  S
O1267     Cr1285   1.993       .  S
O1267      C1275   1.262       .  A
O1268     Cr1285   2.042       .  S
O1268      C1269   1.276       .  A
C1269      O1270   1.257       .  A
C1269      C1490   1.477       .  S
O1270     Cr1286   1.950       .  S
O1271     Cr1286   2.053       .  S
O1271      C1272   1.274       .  A
C1272      O1273   1.248       .  A
C1272      C1563   1.487       .  S
O1273     Cr1287   1.955       .  S
O1274     Cr1287   1.990       .  S
O1274      C1275   1.261       .  A
C1275      C1826   1.479       .  S
O1276     Cr1285   2.054       .  S
O1276      C1284   1.280       .  A
O1277     Cr1285   2.003       .  S
O1277      C1278   1.267       .  A
C1278      O1279   1.274       .  A
C1278      C1605   1.512       .  S
O1279     Cr1286   2.033       .  S
O1280     Cr1286   1.926       .  S
O1280      C1281   1.250       .  A
C1281      O1282   1.265       .  A
C1281      C1521   1.455       .  S
O1282     Cr1287   2.003       .  S
O1283     Cr1287   1.932       .  S
O1283      C1284   1.249       .  A
C1284      C1574   1.489       .  S
Cr1285     O1288   1.758       .  S
Cr1286     O1288   1.754       .  S
Cr1287     O1288   1.758       .  S
O1289     Cr1307   2.011       .  S
O1289      C1297   1.266       .  A
O1290     Cr1307   2.035       .  S
O1290      C1291   1.273       .  A
C1291      O1292   1.258       .  A
C1291      C1591   1.483       .  S
O1292     Cr1308   1.957       .  S
O1293     Cr1308   2.058       .  S
O1293      C1294   1.274       .  A
C1294      O1295   1.246       .  A
C1294      C1448   1.477       .  S
O1295     Cr1309   1.943       .  S
O1296     Cr1309   1.995       .  S
O1296      C1297   1.262       .  A
C1297      C1756   1.503       .  S
O1298     Cr1307   2.047       .  S
O1298      C1306   1.277       .  A
O1299     Cr1307   2.005       .  S
O1299      C1300   1.269       .  A
C1300      O1301   1.275       .  A
C1300      C1437   1.519       .  S
O1301     Cr1308   2.035       .  S
O1302     Cr1308   1.932       .  S
O1302      C1303   1.249       .  A
C1303      O1304   1.265       .  A
C1303      C1476   1.451       .  S
O1304     Cr1309   2.012       .  S
O1305     Cr1309   1.938       .  S
O1305      C1306   1.251       .  A
Cr1307     O1310   1.760       .  S
Cr1308     O1310   1.755       .  S
Cr1309     O1310   1.756       .  S
O1311     Cr1329   2.048       .  S
O1311      C1319   1.278       .  A
O1312     Cr1329   2.005       .  S
O1312      C1313   1.264       .  A
C1313      O1314   1.261       .  A
C1313      C1700   1.490       .  S
O1314     Cr1330   1.990       .  S
O1315     Cr1330   1.953       .  S
O1315      C1316   1.252       .  A
C1316      O1317   1.271       .  A
C1316      C1420   1.492       .  S
O1317     Cr1331   2.042       .  S
O1318     Cr1331   1.956       .  S
O1318      C1319   1.257       .  A
C1319      C1532   1.501       .  S
O1320     Cr1329   2.005       .  S
O1320      C1328   1.267       .  A
O1321     Cr1329   2.057       .  S
O1321      C1322   1.279       .  A
C1322      O1323   1.249       .  A
C1322      C1406   1.481       .  S
O1323     Cr1330   1.931       .  S
O1324     Cr1330   2.001       .  S
O1324      C1325   1.264       .  A
C1325      O1326   1.253       .  A
C1325      C1479   1.453       .  S
O1326     Cr1331   1.942       .  S
O1327     Cr1331   2.027       .  S
O1327      C1328   1.272       .  A
C1328      C1392   1.514       .  S
Cr1329     O1332   1.763       .  S
Cr1330     O1332   1.759       .  S
Cr1331     O1332   1.756       .  S
O1333     Cr1351   2.030       .  S
O1333      C1341   1.273       .  A
O1334     Cr1351   2.000       .  S
O1334      C1335   1.261       .  A
C1335      O1336   1.262       .  A
C1335      C1661   1.479       .  S
O1336     Cr1352   1.997       .  S
O1337     Cr1352   1.937       .  S
O1337      C1338   1.244       .  A
C1338      O1339   1.271       .  A
C1338      C1462   1.483       .  S
O1339     Cr1353   2.050       .  S
O1340     Cr1353   1.962       .  S
O1340      C1341   1.258       .  A
C1341      C1507   1.483       .  S
O1342     Cr1351   1.997       .  S
O1342      C1350   1.267       .  A
O1343     Cr1351   2.050       .  S
O1343      C1344   1.279       .  A
C1344      O1345   1.248       .  A
C1344      C1451   1.491       .  S
O1345     Cr1352   1.936       .  S
O1346     Cr1352   2.010       .  S
O1346      C1347   1.266       .  A
C1347      O1348   1.251       .  A
C1347      C1378   1.446       .  S
O1348     Cr1353   1.923       .  S
O1349     Cr1353   2.038       .  S
O1349      C1350   1.277       .  A
C1350      C1395   1.513       .  S
Cr1351     O1354   1.759       .  S
Cr1352     O1354   1.758       .  S
Cr1353     O1354   1.759       .  S
O1355     Cr1373   2.000       .  S
O1355      C1363   1.262       .  A
O1356     Cr1373   2.025       .  S
O1356      C1357   1.270       .  A
C1357      O1358   1.256       .  A
C1357      C1493   1.469       .  S
O1358     Cr1374   1.966       .  S
O1359     Cr1374   2.042       .  S
O1359      C1360   1.273       .  A
C1360      O1361   1.248       .  A
C1360      C1409   1.490       .  S
O1361     Cr1375   1.950       .  S
O1362     Cr1375   1.996       .  S
O1362      C1363   1.262       .  A
C1363      C1675   1.478       .  S
O1364     Cr1373   2.048       .  S
O1364      C1372   1.276       .  A
O1365     Cr1373   2.002       .  S
O1365      C1366   1.269       .  A
C1366      O1367   1.276       .  A
C1366      C1434   1.514       .  S
O1367     Cr1374   2.038       .  S
O1368     Cr1374   1.927       .  S
O1368      C1369   1.251       .  A
C1369      O1370   1.265       .  A
C1369      C1381   1.446       .  S
O1370     Cr1375   2.004       .  S
O1371     Cr1375   1.939       .  S
O1371      C1372   1.251       .  A
C1372      C1423   1.480       .  S
Cr1373     O1376   1.761       .  S
Cr1374     O1376   1.756       .  S
Cr1375     O1376   1.762       .  S
C1377      C1378   1.401       .  A
C1377      C1382   1.386       .  A
C1377      H1384   1.086       .  S
C1378      C1379   1.414       .  A
C1379      C1380   1.387       .  A
C1379      N1386   1.438       .  S
C1380      C1381   1.401       .  A
C1380      H1385   1.086       .  S
C1381      C1382   1.413       .  A
C1382      N1383   1.438       .  S
N1383      H1387   1.046       .  S
N1383      H1388   1.037       .  S
N1386      H1389   1.037       .  S
N1386      H1390   1.046       .  S
C1391      C1392   1.410       .  A
C1391      C1396   1.417       .  A
C1391      H1398   1.083       .  S
C1392      C1393   1.418       .  A
C1393      C1394   1.419       .  A
C1393      N1400   1.437       .  S
C1394      C1395   1.410       .  A
C1394      H1399   1.083       .  S
C1395      C1396   1.419       .  A
C1396      N1397   1.438       .  S
N1397      H1401   1.046       .  S
N1397      H1402   1.045       .  S
N1400      H1403   1.046       .  S
N1400      H1404   1.046       .  S
C1405      C1406   1.399       .  A
C1405      C1410   1.406       .  A
C1405      H1412   1.084       .  S
C1406      C1407   1.419       .  A
C1407      C1408   1.405       .  A
C1407      N1414   1.440       .  S
C1408      C1409   1.401       .  A
C1408      H1413   1.083       .  S
C1409      C1410   1.420       .  A
C1410      N1411   1.433       .  S
N1411      H1415   1.046       .  S
N1411      H1416   1.046       .  S
N1414      H1417   1.045       .  S
N1414      H1418   1.046       .  S
C1419      C1420   1.412       .  A
C1419      H1426   1.081       .  S
C1420      C1421   1.416       .  A
C1421      C1422   1.399       .  A
C1421      N1428   1.433       .  S
C1422      H1427   1.085       .  S
C1423      C1424   1.414   1_565  A
C1424      N1425   1.438       .  S
N1425      H1429   1.045       .  S
N1425      H1430   1.041   1_545  S
N1428      H1431   1.045       .  S
N1428      H1432   1.044       .  S
C1433      C1438   1.419       .  A
C1433      H1440   1.083       .  S
C1434      C1435   1.419       .  A
C1435      C1436   1.419       .  A
C1435      N1442   1.438       .  S
C1436      H1441   1.083       .  S
C1437      C1438   1.422       .  A
C1438      N1439   1.437       .  S
N1439      H1443   1.046       .  S
N1439      H1444   1.045       .  S
N1442      H1445   1.045       .  S
N1442      H1446   1.046       .  S
C1447      C1448   1.393       .  A
C1447      C1452   1.402       .  A
C1447      H1454   1.084       .  S
C1448      C1449   1.417       .  A
C1449      C1450   1.399       .  A
C1449      N1456   1.433       .  S
C1450      C1451   1.398       .  A
C1450      H1455   1.084       .  S
C1451      C1452   1.432       .  A
C1452      N1453   1.433       .  S
N1453      H1457   1.045       .  S
N1453      H1458   1.046       .  S
N1456      H1459   1.045       .  S
N1456      H1460   1.046       .  S
C1461      C1462   1.413       .  A
C1461      C1466   1.403       .  A
C1461      H1468   1.083       .  S
C1462      C1463   1.403       .  A
C1463      N1470   1.437       .  S
C1464      H1469   1.083       .  S
C1465      C1466   1.408       .  A
C1466      N1467   1.438       .  S
N1467      H1471   1.046       .  S
N1467      H1472   1.046       .  S
N1470      H1473   1.046       .  S
C1475      C1476   1.402       .  A
C1475      C1480   1.393       .  A
C1475      H1482   1.084       .  S
C1476      C1477   1.404       .  A
C1477      C1478   1.390       .  A
C1477      N1484   1.433       .  S
C1478      C1479   1.402       .  A
C1478      H1483   1.085       .  S
C1479      C1480   1.410       .  A
C1480      N1481   1.439       .  S
N1481      H1485   1.046       .  S
N1481      H1486   1.045       .  S
N1484      H1487   1.046       .  S
N1484      H1488   1.046       .  S
C1489      C1490   1.405       .  A
C1489      C1494   1.399       .  A
C1489      H1496   1.084       .  S
C1490      C1491   1.417       .  A
C1491      C1492   1.408       .  A
C1491      N1498   1.437       .  S
C1492      C1493   1.404       .  A
C1492      H1497   1.084       .  S
C1493      C1494   1.405       .  A
C1494      N1495   1.439       .  S
N1495      H1499   1.046       .  S
N1495      H1500   1.045       .  S
N1498      H1501   1.043       .  S
N1498      H1502   1.045       .  S
C1503      C1504   1.410       .  A
C1503      C1508   1.405       .  A
C1503      H1510   1.083       .  S
C1504      C1505   1.414       .  A
C1505      C1506   1.408       .  A
C1505      N1512   1.437       .  S
C1506      C1507   1.406       .  A
C1506      H1511   1.084       .  S
C1507      C1508   1.410       .  A
C1508      N1509   1.439       .  S
N1509      H1513   1.046       .  S
N1509      H1514   1.046       .  S
N1512      H1515   1.046       .  S
N1512      H1516   1.046       .  S
C1517      C1518   1.406       .  A
C1517      C1522   1.388       .  A
C1517      H1524   1.084       .  S
C1518      C1519   1.407   1_556  A
C1519      C1520   1.390       .  A
C1519      N1526   1.439       .  S
C1520      C1521   1.407       .  A
C1520      H1525   1.084       .  S
C1521      C1522   1.406   1_554  A
C1522      N1523   1.439       .  S
N1523      H1527   1.046       .  S
N1523      H1528   1.046       .  S
N1526      H1529   1.045       .  S
N1526      H1530   1.046       .  S
C1531      C1532   1.405       .  A
C1531      C1536   1.406       .  A
C1531      H1538   1.084       .  S
C1532      C1533   1.425       .  A
C1533      C1534   1.408       .  A
C1533      N1540   1.439       .  S
C1534      C1535   1.398       .  A
C1534      H1539   1.084       .  S
C1535      C1536   1.419       .  A
C1536      N1537   1.438       .  S
N1537      H1541   1.046       .  S
N1537      H1542   1.041       .  S
N1540      H1543   1.046       .  S
N1540      H1544   1.046       .  S
C1545      C1546   1.399       .  A
C1545      H1552   1.085       .  S
C1546      C1547   1.424       .  A
C1547      C1548   1.423   1_565  A
C1547      N1554   1.437       .  S
C1548      H1553   1.083       .  S
C1549      C1550   1.424       .  A
C1550      N1551   1.432       .  S
N1551      H1555   1.044       .  S
N1551      H1556   1.037       .  S
N1554      H1557   1.043       .  S
N1554      H1558   1.045       .  S
C1559      C1560   1.405   1_554  A
C1559      C1564   1.405       .  A
C1559      H1566   1.084       .  S
C1560      C1561   1.411   1_556  A
C1561      C1562   1.408       .  A
C1561      N1568   1.434   1_554  S
C1562      C1563   1.404       .  A
C1562      H1567   1.083       .  S
C1563      C1564   1.419       .  A
C1564      N1565   1.434       .  S
N1565      H1569   1.044       .  S
N1565      H1570   1.046       .  S
N1568      H1572   1.046       .  S
C1573      C1574   1.396       .  A
C1573      C1578   1.401   1_554  A
C1573      H1580   1.084       .  S
C1574      C1575   1.427   1_554  A
C1575      C1576   1.409       .  A
C1575      N1582   1.439       .  S
C1576      C1577   1.395       .  A
C1576      H1581   1.084       .  S
C1577      C1578   1.421       .  A
C1578      N1579   1.439       .  S
N1579      H1583   1.046   1_556  S
N1579      H1584   1.043       .  S
N1582      H1585   1.046       .  S
N1582      H1586   1.046       .  S
C1587      C1588   1.405       .  A
C1587      C1592   1.413       .  A
C1587      H1594   1.084       .  S
C1588      C1589   1.408       .  A
C1589      C1590   1.399       .  A
C1589      N1596   1.439       .  S
C1590      C1591   1.405       .  A
C1590      H1595   1.084       .  S
C1591      C1592   1.412       .  A
C1592      N1593   1.437       .  S
N1593      H1597   1.046       .  S
N1593      H1598   1.046       .  S
N1596      H1599   1.045       .  S
N1596      H1600   1.046       .  S
C1601      C1602   1.410       .  A
C1601      C1606   1.419       .  A
C1601      H1608   1.083       .  S
C1602      C1603   1.421       .  A
C1603      C1604   1.417       .  A
C1603      N1610   1.438       .  S
C1604      C1605   1.408       .  A
C1604      H1609   1.083       .  S
C1605      C1606   1.417       .  A
C1606      N1607   1.437       .  S
N1607      H1611   1.046       .  S
N1607      H1612   1.046       .  S
N1610      H1613   1.045       .  S
N1610      H1614   1.046       .  S
C1615      C1616   1.408       .  A
C1615      H1622   1.080       .  S
C1616      C1617   1.422       .  A
C1617      C1618   1.397   1_554  A
C1617      N1624   1.421       .  S
C1618      H1623   1.085       .  S
C1619      C1620   1.412   1_556  A
C1620      N1621   1.437       .  S
N1621      H1625   1.046       .  S
N1621      H1626   1.046       .  S
N1624      H1627   1.044       .  S
N1624      H1628   1.038       .  S
C1629      C1630   1.405       .  A
C1629      C1634   1.410   1_556  A
C1629      H1636   1.083       .  S
C1630      C1631   1.419       .  A
C1631      C1632   1.407   1_556  A
C1631      N1638   1.431       .  S
C1632      C1633   1.398       .  A
C1632      H1637   1.084       .  S
C1633      C1634   1.416       .  A
C1634      N1635   1.439       .  S
N1635      H1639   1.046       .  S
N1635      H1640   1.045       .  S
N1638      H1641   1.046       .  S
N1638      H1642   1.045       .  S
C1643      C1644   1.388   1_556  A
C1643      C1648   1.383       .  A
C1643      H1650   1.085       .  S
C1644      C1645   1.419       .  A
C1645      C1646   1.394       .  A
C1645      N1652   1.439       .  S
C1646      C1647   1.392   1_554  A
C1646      H1651   1.084       .  S
C1647      C1648   1.422       .  A
C1648      N1649   1.442       .  S
N1649      H1653   1.046       .  S
N1649      H1654   1.043       .  S
N1652      H1655   1.045       .  S
N1652      H1656   1.046       .  S
C1657      C1658   1.408       .  A
C1657      C1662   1.407       .  A
C1657      H1664   1.077       .  S
C1658      C1659   1.405   1_655  A
C1659      C1660   1.410       .  A
C1659      N1666   1.437       .  S
C1660      C1661   1.409       .  A
C1660      H1665   1.080       .  S
C1661      C1662   1.403   1_455  A
C1662      N1663   1.437       .  S
N1663      H1667   1.046       .  S
N1663      H1668   1.046   1_655  S
N1666      H1669   1.046   1_455  S
N1666      H1670   1.046       .  S
C1671      C1672   1.406       .  A
C1671      C1676   1.405       .  A
C1671      H1678   1.073       .  S
C1672      C1673   1.409       .  A
C1673      C1674   1.414       .  A
C1673      N1680   1.437       .  S
C1674      C1675   1.409       .  A
C1674      H1679   1.084       .  S
C1675      C1676   1.403       .  A
C1676      N1677   1.438       .  S
N1677      H1681   1.045       .  S
N1677      H1682   1.045       .  S
N1680      H1683   1.045       .  S
N1680      H1684   1.046       .  S
C1685      C1686   1.393       .  A
C1685      C1690   1.390       .  A
C1685      H1692   1.084       .  S
C1686      C1687   1.412       .  A
C1687      C1688   1.390       .  A
C1687      N1694   1.433       .  S
C1688      C1689   1.393       .  A
C1688      H1693   1.084       .  S
C1689      C1690   1.412       .  A
C1690      N1691   1.433       .  S
N1691      H1695   1.046       .  S
N1691      H1696   1.045       .  S
N1694      H1697   1.046       .  S
N1694      H1698   1.046       .  S
C1699      C1700   1.407       .  A
C1699      C1704   1.401       .  A
C1699      H1706   1.083       .  S
C1700      C1701   1.410       .  A
C1701      C1702   1.412       .  A
C1701      N1708   1.437       .  S
C1702      C1703   1.409       .  A
C1702      H1707   1.082       .  S
C1703      C1704   1.415       .  A
C1704      N1705   1.439       .  S
N1705      H1709   1.045       .  S
N1705      H1710   1.041       .  S
N1708      H1711   1.046       .  S
N1708      H1712   1.046       .  S
C1713      C1718   1.418       .  A
C1713      H1720   1.083       .  S
C1714      C1715   1.421       .  A
C1715      C1716   1.414       .  A
C1715      N1722   1.437       .  S
C1716      H1721   1.084       .  S
C1717      C1718   1.418       .  A
C1718      N1719   1.437       .  S
N1719      H1723   1.046       .  S
N1719      H1724   1.045       .  S
N1722      H1725   1.044       .  S
N1722      H1726   1.046       .  S
C1727      C1728   1.408       .  A
C1727      C1732   1.410       .  A
C1727      H1734   1.084       .  S
C1728      C1729   1.414       .  A
C1729      C1730   1.399       .  A
C1729      N1736   1.438       .  S
C1730      C1731   1.409       .  A
C1730      H1735   1.078       .  S
C1731      C1732   1.414       .  A
C1732      N1733   1.437       .  S
N1733      H1737   1.046       .  S
N1733      H1738   1.045       .  S
N1736      H1740   1.045       .  S
C1741      C1742   1.402       .  A
C1741      C1746   1.411       .  A
C1741      H1748   1.084       .  S
C1742      C1743   1.420       .  A
C1743      C1744   1.401       .  A
C1743      N1750   1.441       .  S
C1744      C1745   1.403       .  A
C1744      H1749   1.084       .  S
C1745      C1746   1.418       .  A
C1746      N1747   1.438       .  S
N1747      H1751   1.046       .  S
N1747      H1752   1.046       .  S
N1750      H1753   1.043       .  S
N1750      H1754   1.046       .  S
C1755      C1756   1.407       .  A
C1755      C1760   1.408   1_455  A
C1755      H1762   1.084       .  S
C1756      C1757   1.422       .  A
C1757      C1758   1.409   1_455  A
C1757      N1764   1.438       .  S
C1758      C1759   1.403       .  A
C1758      H1763   1.084       .  S
C1759      C1760   1.421       .  A
C1760      N1761   1.432       .  S
N1761      H1765   1.045       .  S
N1761      H1766   1.045       .  S
N1764      H1767   1.045       .  S
N1764      H1768   1.046       .  S
C1769      C1770   1.405       .  A
C1769      C1774   1.410       .  A
C1769      H1776   1.084       .  S
C1770      C1771   1.418       .  A
C1771      C1772   1.418       .  A
C1771      N1778   1.437       .  S
C1772      C1773   1.410       .  A
C1772      H1777   1.083       .  S
C1773      C1774   1.427       .  A
C1774      N1775   1.432       .  S
N1775      H1779   1.045       .  S
N1775      H1780   1.045       .  S
N1778      H1781   1.045       .  S
N1778      H1782   1.046       .  S
C1783      C1788   1.400       .  A
C1783      H1790   1.084       .  S
C1784      C1785   1.427       .  A
C1785      N1792   1.438       .  S
C1786      C1787   1.394       .  A
C1786      H1791   1.084       .  S
C1787      C1788   1.417       .  A
C1788      N1789   1.434       .  S
N1789      H1793   1.046       .  S
N1789      H1794   1.046       .  S
N1792      H1795   1.046       .  S
N1792      H1796   1.046       .  S
C1797      C1798   1.407       .  A
C1797      C1802   1.406       .  A
C1797      H1804   1.084       .  S
C1798      C1799   1.404       .  A
C1799      C1800   1.406       .  A
C1799      N1806   1.438       .  S
C1800      C1801   1.415       .  A
C1800      H1805   1.083       .  S
C1801      C1802   1.414       .  A
C1802      N1803   1.437       .  S
N1803      H1807   1.046       .  S
N1803      H1808   1.045       .  S
N1806      H1809   1.046       .  S
N1806      H1810   1.046       .  S
C1811      C1812   1.393       .  A
C1811      C1816   1.393       .  A
C1811      H1818   1.084       .  S
C1812      C1813   1.410       .  A
C1813      C1814   1.393       .  A
C1813      N1820   1.439       .  S
C1814      C1815   1.393       .  A
C1814      H1819   1.084       .  S
C1815      C1816   1.410       .  A
C1816      N1817   1.439       .  S
N1817      H1821   1.046       .  S
N1817      H1822   1.045       .  S
N1820      H1823   1.045       .  S
N1820      H1824   1.046       .  S
C1825      C1826   1.406       .  A
C1825      C1830   1.410       .  A
C1825      H1832   1.084       .  S
C1826      C1827   1.415       .  A
C1827      C1828   1.400       .  A
C1827      N1834   1.440       .  S
C1828      C1829   1.406       .  A
C1828      H1833   1.083       .  S
C1829      C1830   1.413       .  A
C1830      N1831   1.437       .  S
N1831      H1835   1.046       .  S
N1831      H1836   1.046       .  S
N1834      H1837   1.043       .  S
N1834      H1838   1.045       .  S
C1839      C1840   1.405       .  A
C1839      C1844   1.407       .  A
C1839      H1846   1.084       .  S
C1840      C1841   1.418       .  A
C1841      C1842   1.400       .  A
C1841      N1848   1.439       .  S
C1842      C1843   1.397       .  A
C1842      H1847   1.085       .  S
C1843      C1844   1.416       .  A
C1844      N1845   1.438       .  S
N1845      H1849   1.045       .  S
N1845      H1850   1.044       .  S
N1848      H1851   1.045       .  S
N1848      H1852   1.046       .  S
C1853      C1854   1.403       .  A
C1853      C1858   1.398       .  A
C1853      H1860   1.075       .  S
C1854      C1855   1.403   1_655  A
C1855      C1856   1.409       .  A
C1855      N1862   1.436       .  S
C1856      C1857   1.408       .  A
C1856      H1861   1.083       .  S
C1857      C1858   1.405   1_455  A
C1858      N1859   1.438       .  S
N1859      H1863   1.046       .  S
N1859      H1864   1.043   1_655  S
N1862      H1865   1.046   1_455  S
N1862      H1866   1.045       .  S
C1867      C1868   1.403       .  A
C1867      C1872   1.406       .  A
C1867      H1874   1.084       .  S
C1868      C1869   1.406       .  A
C1869      C1870   1.398       .  A
C1869      N1876   1.439       .  S
C1870      C1871   1.403       .  A
C1870      H1875   1.085       .  S
C1871      C1872   1.417       .  A
C1872      N1873   1.437       .  S
N1873      H1877   1.045       .  S
N1873      H1878   1.043       .  S
N1876      H1879   1.045       .  S
N1876      H1880   1.046       .  S
C1881      C1882   1.394   1_554  A
C1881      C1886   1.388       .  A
C1881      H1888   1.084       .  S
C1882      C1883   1.413       .  A
C1883      C1884   1.389       .  A
C1883      N1890   1.439       .  S
C1884      C1885   1.394   1_556  A
C1884      H1889   1.084       .  S
C1885      C1886   1.410       .  A
C1886      N1887   1.434       .  S
N1887      H1891   1.046       .  S
N1887      H1892   1.046       .  S
N1890      H1893   1.046       .  S
N1890      H1894   1.046       .  S
C1895      C1896   1.394       .  A
C1895      C1900   1.401       .  A
C1895      H1902   1.084       .  S
C1896      C1897   1.420       .  A
C1897      C1898   1.410       .  A
C1897      N1904   1.432       .  S
C1898      C1899   1.396       .  A
C1898      H1903   1.084       .  S
C1899      C1900   1.425       .  A
C1900      N1901   1.435       .  S
N1901      H1905   1.043       .  S
N1901      H1906   1.040       .  S
N1904      H1907   1.046       .  S
N1904      H1908   1.046       .  S
C1909      C1910   1.404       .  A
C1909      C1914   1.406       .  A
C1909      H1916   1.084       .  S
C1910      C1911   1.417       .  A
C1911      C1912   1.402       .  A
C1911      N1918   1.439       .  S
C1912      C1913   1.400       .  A
C1912      H1917   1.084       .  S
C1913      C1914   1.419       .  A
C1914      N1915   1.438       .  S
N1915      H1919   1.046       .  S
N1915      H1920   1.042       .  S
N1918      H1921   1.046       .  S
N1918      H1922   1.046       .  S
C1923      C1924   1.409       .  A
C1923      C1928   1.413       .  A
C1923      H1930   1.083       .  S
C1924      C1925   1.424       .  A
C1925      C1926   1.408       .  A
C1925      N1932   1.432       .  S
C1926      C1927   1.405       .  A
C1926      H1931   1.084       .  S
C1927      C1928   1.415       .  A
C1928      N1929   1.437       .  S
N1929      H1933   1.046       .  S
N1929      H1934   1.045       .  S
N1932      H1935   1.045       .  S
N1932      H1936   1.044       .  S
C1937      C1942   1.406       .  A
C1939      C1940   1.402   1_554  A
C1940      C1941   1.415       .  A
C1940      H1945   1.083       .  S
C1941      C1942   1.412       .  A
C1942      N1943   1.438       .  S
N1943      H1947   1.046       .  S
N1943      H1948   1.044       .  S
N1946      H1949   1.046   1_545  S
N1946      H1950   1.046       .  S
C1951      C1952   1.416       .  A
C1951      C1956   1.411   1_554  A
C1951      H1958   1.081       .  S
C1952      C1953   1.415       .  A
C1953      C1954   1.410       .  A
C1953      N1960   1.438       .  S
C1954      C1955   1.408   1_554  A
C1954      H1959   1.084       .  S
C1955      C1956   1.405       .  A
C1956      N1957   1.437       .  S
N1957      H1961   1.045       .  S
N1957      H1962   1.046       .  S
N1960      H1963   1.045       .  S
N1960      H1964   1.046       .  S
C1965      C1966   1.401       .  A
C1965      C1970   1.413   1_655  A
C1965      H1972   1.083       .  S
C1966      C1967   1.425       .  A
C1967      C1968   1.399   1_655  A
C1967      N1974   1.431       .  S
C1968      C1969   1.394       .  A
C1968      H1973   1.084       .  S
C1969      C1970   1.416       .  A
C1970      N1971   1.434       .  S
N1971      H1975   1.045       .  S
N1971      H1976   1.046       .  S
N1974      H1977   1.046       .  S
N1974      H1978   1.043       .  S
C1979      C1980   1.408       .  A
C1979      C1984   1.398       .  A
C1979      H1986   1.084       .  S
C1980      C1981   1.417       .  A
C1981      C1982   1.411       .  A
C1981      N1988   1.437       .  S
C1982      C1983   1.404       .  A
C1982      H1987   1.084       .  S
C1983      C1984   1.417       .  A
C1984      N1985   1.439       .  S
N1985      H1989   1.045       .  S
N1985      H1990   1.041       .  S
N1988      H1991   1.045       .  S
N1988      H1992   1.046       .  S
C1993      C1994   1.411       .  A
C1993      C1998   1.412       .  A
C1993      H2000   1.083       .  S
C1995      C1996   1.421       .  A
C1995      N2002   1.437       .  S
C1996      C1997   1.409       .  A
C1996      H2001   1.083       .  S
C1998      N1999   1.438       .  S
N1999      H2003   1.046       .  S
N2002      H2005   1.045       .  S
N2002      H2006   1.046       .  S
C2007      C2008   1.404   1_556  A
C2007      C2012   1.405       .  A
C2007      H2014   1.084       .  S
C2008      C2009   1.424       .  A
C2009      C2010   1.405   1_554  A
C2009      N2016   1.438       .  S
C2010      C2011   1.404       .  A
C2010      H2015   1.084       .  S
C2011      C2012   1.407       .  A
C2012      N2013   1.433       .  S
N2013      H2017   1.045       .  S
N2013      H2018   1.046       .  S
N2016      H2020   1.045       .  S
C2021      C2022   1.410       .  A
C2021      C2026   1.391   1_554  A
C2021      H2028   1.084   1_554  S
C2022      C2023   1.419       .  A
C2023      C2024   1.412       .  A
C2023      N2030   1.437       .  S
C2024      C2025   1.410   1_554  A
C2024      H2029   1.084       .  S
C2025      C2026   1.406       .  A
C2026      N2027   1.431       .  S
N2027      H2031   1.045       .  S
N2027      H2032   1.045       .  S
N2030      H2033   1.040       .  S
N2030      H2034   1.046       .  S
C2035      C2036   1.394   1_556  A
C2035      C2040   1.392       .  A
C2035      H2042   1.085       .  S
C2036      C2037   1.403       .  A
C2037      C2038   1.397       .  A
C2037      N2044   1.438       .  S
C2038      C2039   1.405   1_554  A
C2038      H2043   1.084       .  S
C2039      C2040   1.416       .  A
C2040      N2041   1.439       .  S
N2041      H2045   1.046       .  S
N2041      H2046   1.046       .  S
N2044      H2047   1.046       .  S
N2044      H2048   1.046       .  S
