geometry optimzed in LAMMPS
_audit_creation_date              2020-12-01 
_audit_creation_method            'lammps2cif' 
_symmetry_space_group_name_H-M    'P1' 
_symmetry_Int_Tables_number       1 
_symmetry_cell_setting            triclinic 
loop_ 
_symmetry_equiv_pos_as_xyz 
  x,y,z 
_cell_length_a                    59.68572691 
_cell_length_b                    71.8476226844643 
_cell_length_c                    49.20822186405939 
_cell_angle_alpha                 90.122881066628 
_cell_angle_beta                  89.96327436948108 
_cell_angle_gamma                 89.99578447804193 
loop_ 
_atom_site_label 
_atom_site_type_symbol 
_atom_site_fract_x 
_atom_site_fract_y 
_atom_site_fract_z 
_atom_site_charge 
Zr1        Zr  0.35346279  0.52278107  0.62807964     2.17500
O2          O  0.37269356  0.54467322  0.65802630    -0.51800
O3          O  0.33227744  0.51517084  0.66928064    -0.75000
O4          O  0.33531455  0.55330119  0.62890248    -0.81700
O5          O  0.40447414  0.49087944  0.63234401    -0.83500
O6          O  0.31034404  0.55524586  0.59445757    -0.79100
O7          O  0.38939938  0.51744970  0.64939707    -0.90700
O8          O  0.30785001  0.49201993  0.65892485    -0.76700
O9          O  0.31692208  0.51502136  0.61273405    -0.86200
O10         O  0.35115930  0.48964638  0.62959844    -0.85900
O11         O  0.35201277  0.53553755  0.58285820    -0.72600
O12         O  0.38198982  0.51167479  0.59758227    -0.84800
Zr13       Zr  0.34009993  0.48225250  0.53777646     2.26400
Zr14       Zr  0.31539076  0.52715432  0.56756276     2.06300
Zr15       Zr  0.37905610  0.47860139  0.59870867     2.10000
Zr16       Zr  0.31490564  0.48187394  0.61311989     1.78800
O17         O  0.41820438  0.47121545  0.58985886    -0.93600
O18         O  0.27463587  0.48724422  0.61564288    -0.41400
O19         O  0.34278086  0.46965109  0.58288876    -0.78000
O20         O  0.31175089  0.49387274  0.56829726    -0.96700
O21         O  0.34281348  0.51542341  0.53641409    -0.90000
O22         O  0.37665965  0.48999906  0.55326240    -0.92900
C23         C  0.31617357  0.50402243  0.67527450     1.00900
C24         C  0.40497844  0.50521595  0.64784484     1.13800
C25         C  0.32012448  0.56201777  0.61549680     1.04600
O26         O  0.27589408  0.53346314  0.57579063    -0.95000
O27         O  0.29221923  0.51712757  0.53054194    -0.90800
O28         O  0.30720876  0.49100387  0.51131692    -0.83900
C29         C  0.29221265  0.50378656  0.51328555     1.11200
O30         O  0.40548436  0.54705566  0.56642625    -0.97000
Zr31       Zr  0.37934060  0.52291516  0.55197068     1.88900
O32         O  0.35991964  0.48948156  0.49586103    -0.73600
O33         O  0.31875263  0.55224983  0.53463630    -0.52900
O34         O  0.37300206  0.55229864  0.52852750    -0.97600
O35         O  0.41870386  0.51440141  0.54686740    -0.54800
O36         O  0.38235597  0.51421684  0.50424743    -0.74200
C37         C  0.37427538  0.50175657  0.48829673     0.98200
O38         O  0.31755303  0.45747056  0.51773486    -0.63000
O39         O  0.37584827  0.45387401  0.63232207    -0.57800
O40         O  0.36112932  0.45282075  0.53410736    -0.94500
O41         O  0.38411275  0.45145367  0.57069146    -0.92900
O42         O  0.32131909  0.45417998  0.64046917    -0.93200
O43         O  0.29234067  0.45573892  0.59732945    -0.92000
C44         C  0.37623437  0.44469895  0.54857288     1.17000
H45         H  0.35368996  0.48497638  0.64775955     0.33000
H46         H  0.29702844  0.49014098  0.56220640     0.43800
H47         H  0.38797525  0.48431327  0.54190160     0.37400
H48         H  0.35389561  0.54887486  0.58311766     0.33800
H49         H  0.26942393  0.47928730  0.63079176     0.25600
H50         H  0.30364412  0.55792939  0.53405924     0.31600
H51         H  0.36719901  0.54879712  0.51038276     0.37500
H52         H  0.30764825  0.45295374  0.65174303     0.31900
H53         H  0.38233250  0.44273137  0.62343796     0.30800
H54         H  0.42174254  0.46087878  0.60242625     0.32500
H55         H  0.41918734  0.50518474  0.53189590     0.31500
H56         H  0.29148260  0.45727796  0.57736692     0.35500
H57         H  0.32623513  0.45293569  0.50190152     0.28200
H58         H  0.36157500  0.54819098  0.67205715     0.32400
H59         H  0.41400265  0.55054764  0.54992522     0.35300
H60         H  0.38679654  0.45719308  0.64663645     0.27900
H61         H  0.31792929  0.44714232  0.53102445     0.40700
H62         H  0.27267449  0.52757371  0.59352455     0.30800
H63         H  0.27312158  0.50008942  0.62271048     0.38400
H64         H  0.42223778  0.50713471  0.56339210     0.30300
H65         H  0.32822860  0.56172778  0.54366081     0.30300
H66         H  0.37516964  0.55608888  0.64718635     0.30600
Zr67       Zr  0.35554578  0.73495520  0.65663469     2.17500
O68         O  0.37600374  0.71103621  0.63154755    -0.51800
O69         O  0.33530175  0.74339333  0.61538284    -0.75000
O70         O  0.33457306  0.70589880  0.65239014    -0.81700
O71         O  0.40658900  0.76694297  0.65220259    -0.83500
O72         O  0.30888871  0.70390860  0.68617813    -0.79100
O73         O  0.39034065  0.74153592  0.63287682    -0.90700
O74         O  0.31356421  0.76846145  0.62467286    -0.76700
O75         O  0.31909335  0.74508503  0.66932328    -0.86200
O76         O  0.35647901  0.76811866  0.65686096    -0.85900
O77         O  0.35004221  0.72162365  0.70091726    -0.72600
O78         O  0.38364458  0.74332659  0.68942258    -0.84800
Zr79       Zr  0.34108190  0.77458781  0.74706736     2.26400
Zr80       Zr  0.31340156  0.73212193  0.71338172     2.06300
Zr81       Zr  0.38388161  0.77657858  0.68994997     2.10000
Zr82       Zr  0.32035979  0.77824037  0.67058160     1.78800
O83         O  0.42289646  0.77551863  0.70443245    -0.93600
O84         O  0.27984071  0.77826926  0.66460126    -0.41400
O85         O  0.34780293  0.78777880  0.70307250    -0.78000
O86         O  0.31321351  0.76557175  0.71425786    -0.96700
O87         O  0.34029478  0.74133255  0.74697335    -0.90000
O88         O  0.37755956  0.76452031  0.73428708    -0.92900
C89         C  0.32083647  0.75580917  0.60865522     1.00900
C90         C  0.40585245  0.75386398  0.63454311     1.13800
C91         C  0.31868385  0.69739863  0.66489508     1.04600
O92         O  0.27525944  0.72965612  0.69625475    -0.95000
O93         O  0.28910645  0.74355023  0.74872155    -0.90800
O94         O  0.30729152  0.76638834  0.77229041    -0.83900
C95         C  0.29043866  0.75566945  0.76779056     1.11200
O96         O  0.39764864  0.70354825  0.72200552    -0.97000
Zr97       Zr  0.37677225  0.73152333  0.73422623     1.88900
O98         O  0.35949561  0.76654223  0.78940152    -0.73600
O99         O  0.30894421  0.70714218  0.74630842    -0.52900
O100        O  0.36320325  0.70455904  0.75934189    -0.97600
O101        O  0.41721807  0.73416416  0.74011161    -0.54800
O102        O  0.38145217  0.74139247  0.78118963    -0.74200
C103        C  0.37384019  0.75424397  0.79684229     0.98200
O104        O  0.31963161  0.80114854  0.76424379    -0.63000
O105        O  0.38846539  0.80307637  0.65968310    -0.57800
O106        O  0.36466428  0.80231114  0.75349899    -0.94500
O107        O  0.38941693  0.80349463  0.71855637    -0.92900
O108        O  0.33230411  0.80512246  0.64426022    -0.93200
O109        O  0.30059974  0.80570253  0.68704188    -0.92000
C110        C  0.38089020  0.81008219  0.74047918     1.17000
H111        H  0.36033845  0.77298174  0.63915119     0.33000
H112        H  0.29872760  0.77034863  0.71949744     0.43800
H113        H  0.38879913  0.76923297  0.74662562     0.37400
H114        H  0.35071258  0.70821446  0.70021403     0.33800
H115        H  0.27721173  0.78595816  0.64822667     0.25600
H116        H  0.29355256  0.70244141  0.74325984     0.31600
H117        H  0.36707466  0.70701447  0.77857285     0.37500
H118        H  0.31915857  0.80829719  0.63291594     0.31900
H119        H  0.37689777  0.81210426  0.66556994     0.30800
H120        H  0.42824150  0.78853896  0.70332412     0.32500
H121        H  0.41962506  0.74658580  0.74833607     0.31500
H122        H  0.30823368  0.80900295  0.70424162     0.35500
H123        H  0.32500862  0.81209580  0.75396395     0.28200
H124        H  0.36609541  0.70727902  0.61636374     0.32400
H125        H  0.40392125  0.69877443  0.73926789     0.35300
H126        H  0.40286539  0.80880820  0.66513866     0.27900
H127        H  0.30420016  0.79935562  0.75733389     0.40700
H128        H  0.26958258  0.74259952  0.69619405     0.30800
H129        H  0.27615853  0.76543894  0.65875891     0.38400
H130        H  0.42323722  0.73534742  0.72143889     0.30300
H131        H  0.31881240  0.69703036  0.73967456     0.30300
H132        H  0.37663450  0.70008964  0.64371475     0.30600
Zr133      Zr  0.45314061  0.51831025  0.15391964     2.17500
O134        O  0.43283611  0.53805307  0.12209715    -0.51800
O135        O  0.47708659  0.51230146  0.11444853    -0.75000
O136        O  0.46717193  0.55024993  0.15444822    -0.81700
O137        O  0.40513791  0.48421780  0.14771995    -0.83500
O138        O  0.49047360  0.55427632  0.19023903    -0.79100
O139        O  0.41917045  0.51080114  0.12955715    -0.90700
O140        O  0.50428051  0.49210163  0.12710335    -0.76700
O141        O  0.48971676  0.51301718  0.17130560    -0.86200
O142        O  0.45810134  0.48538241  0.15262761    -0.85900
O143        O  0.45174445  0.53135159  0.19906876    -0.72600
O144        O  0.42444762  0.50546868  0.18271417    -0.84800
Zr145      Zr  0.46610709  0.47949961  0.24495190     2.26400
Zr146      Zr  0.48850006  0.52550162  0.21655777     2.06300
Zr147      Zr  0.43025768  0.47257421  0.18214987     2.10000
Zr148      Zr  0.49424803  0.47998226  0.17105828     1.78800
O149        O  0.39198703  0.46082885  0.18258815    -0.93600
O150        O  0.53454242  0.48500549  0.17417248    -0.41400
O151        O  0.46654273  0.46617934  0.20010985    -0.78000
O152        O  0.49467426  0.49245313  0.21602799    -0.96700
O153        O  0.46063232  0.51237761  0.24583939    -0.90000
O154        O  0.42959995  0.48478393  0.22734329    -0.92900
C155        C  0.49500362  0.50289116  0.10981683     1.00900
C156        C  0.40424758  0.49807371  0.13138477     1.13800
C157        C  0.48037979  0.56031544  0.16892926     1.04600
O158        O  0.52825436  0.53154799  0.20978111    -0.95000
O159        O  0.50911701  0.51759918  0.25735548    -0.90800
O160        O  0.49756342  0.48922310  0.27264158    -0.83900
C161        C  0.51042504  0.50353162  0.27331121     1.11200
O162        O  0.39751410  0.54017974  0.21055626    -0.97000
Zr163      Zr  0.42415981  0.51747458  0.22809634     1.88900
O164        O  0.44466608  0.48709944  0.28572142    -0.73600
O165        O  0.48410649  0.55188148  0.24729540    -0.52900
O166        O  0.42734634  0.54716989  0.25178986    -0.97600
O167        O  0.38539805  0.50690444  0.23136915    -0.54800
O168        O  0.41972144  0.50981992  0.27591778    -0.74200
C169        C  0.42890940  0.49837480  0.29254515     0.98200
O170        O  0.49007467  0.45586601  0.26540062    -0.63000
O171        O  0.43948106  0.44768109  0.15038284    -0.57800
O172        O  0.44629275  0.44984907  0.25019473    -0.94500
O173        O  0.42391134  0.44683313  0.21313833    -0.92900
O174        O  0.48897834  0.45390357  0.13991953    -0.93200
O175        O  0.51533240  0.45247762  0.18441217    -0.92000
C176        C  0.43135071  0.44120118  0.23617145     1.17000
H177        H  0.45667867  0.48063645  0.13432368     0.33000
H178        H  0.50933759  0.48965164  0.22312376     0.43800
H179        H  0.41830337  0.47873510  0.23827888     0.37400
H180        H  0.44848926  0.54449228  0.19872066     0.33800
H181        H  0.54033639  0.48270512  0.15560804     0.25600
H182        H  0.49746478  0.55974398  0.24403533     0.31600
H183        H  0.43621288  0.54442998  0.26830277     0.37500
H184        H  0.49957626  0.45609504  0.12477546     0.31900
H185        H  0.43748096  0.43607896  0.16093089     0.30800
H186        H  0.39263997  0.44888062  0.17254736     0.32500
H187        H  0.38501049  0.49818669  0.24691387     0.31500
H188        H  0.51004085  0.44967526  0.20303359     0.35500
H189        H  0.48211332  0.45177494  0.28200570     0.28200
H190        H  0.44436672  0.54383278  0.11036242     0.32400
H191        H  0.38805144  0.54374558  0.22626721     0.35300
H192        H  0.42696912  0.44763604  0.13718351     0.27900
H193        H  0.48948587  0.44504713  0.25291866     0.40700
H194        H  0.52968924  0.53474781  0.19029971     0.30800
H195        H  0.53618579  0.49859646  0.17685176     0.38400
H196        H  0.38321673  0.49889078  0.21518603     0.30300
H197        H  0.47146376  0.55914687  0.23976963     0.30300
H198        H  0.42654934  0.54833183  0.13315521     0.30600
Zr199      Zr  0.45158913  0.73654182  0.12966728     2.17500
O200        O  0.43095126  0.71422638  0.15746675    -0.51800
O201        O  0.47301382  0.74408115  0.17061608    -0.75000
O202        O  0.46922886  0.70600079  0.13232510    -0.81700
O203        O  0.40333670  0.77101943  0.13590938    -0.83500
O204        O  0.49252233  0.70217548  0.09638480    -0.79100
O205        O  0.41700010  0.74398676  0.15298688    -0.90700
O206        O  0.49568439  0.76847237  0.16086925    -0.76700
O207        O  0.48841381  0.74358285  0.11435868    -0.86200
O208        O  0.45460722  0.76962522  0.13031125    -0.85900
O209        O  0.45310401  0.72312822  0.08480753    -0.72600
O210        O  0.42319609  0.74765061  0.09903841    -0.84800
Zr211      Zr  0.46595451  0.77545665  0.03888928     2.26400
Zr212      Zr  0.49008830  0.73063829  0.06961390     2.06300
Zr213      Zr  0.42704238  0.78077876  0.09923142     2.10000
Zr214      Zr  0.49104383  0.77671106  0.11382986     1.78800
O215        O  0.38727162  0.78723736  0.09342389    -0.93600
O216        O  0.53092607  0.77091441  0.12010295    -0.41400
O217        O  0.46347995  0.78897558  0.08340354    -0.78000
O218        O  0.49438798  0.76389080  0.06922137    -0.96700
O219        O  0.46274947  0.74233599  0.03847441    -0.90000
O220        O  0.42922634  0.76835456  0.05443383    -0.92900
C221        C  0.48790863  0.75620991  0.17716782     1.00900
C222        C  0.40254595  0.75717564  0.15215369     1.13800
C223        C  0.48314700  0.69633643  0.11829278     1.04600
O224        O  0.52908146  0.72537925  0.08191096    -0.95000
O225        O  0.51168689  0.73917792  0.03008363    -0.90800
O226        O  0.49608596  0.76450310  0.00974797    -0.83900
C227        C  0.51080360  0.75148537  0.01126708     1.11200
O228        O  0.40142129  0.71024140  0.06791280    -0.97000
Zr229      Zr  0.42600132  0.73553134  0.05375198     1.88900
O230        O  0.44505145  0.76929908  0.99763431    -0.73600
O231        O  0.48952375  0.70456695  0.03790838    -0.52900
O232        O  0.43305959  0.70709164  0.02804977    -0.97600
O233        O  0.38628716  0.74303293  0.04978829    -0.54800
O234        O  0.42174241  0.74513409  0.00658171    -0.74200
C235        C  0.42987882  0.75759610  0.99066692     0.98200
O236        O  0.49019580  0.80050030  0.02286484    -0.63000
O237        O  0.43154129  0.80741855  0.12946708    -0.57800
O238        O  0.44425174  0.80402518  0.03197461    -0.94500
O239        O  0.42092318  0.80632341  0.06825766    -0.92900
O240        O  0.48450872  0.80632494  0.13672368    -0.93200
O241        O  0.51566819  0.80129863  0.09753816    -0.92000
C242        C  0.42865388  0.81224694  0.04553226     1.17000
H243        H  0.45203560  0.77455473  0.14833944     0.33000
H244        H  0.50906717  0.76723698  0.06251572     0.43800
H245        H  0.41792201  0.77386440  0.04295238     0.37400
H246        H  0.45085104  0.70985350  0.08541678     0.33800
H247        H  0.53503589  0.77809158  0.13656733     0.25600
H248        H  0.50363296  0.69774589  0.04147345     0.31600
H249        H  0.44482462  0.71047864  0.01475978     0.37500
H250        H  0.47516304  0.80327479  0.15272833     0.31900
H251        H  0.41972060  0.81627339  0.12384709     0.30800
H252        H  0.38482272  0.79937816  0.10251876     0.32500
H253        H  0.38538423  0.75294463  0.03589063     0.31500
H254        H  0.50681253  0.80781397  0.08345954     0.35500
H255        H  0.48615317  0.81148071  0.03402713     0.28200
H256        H  0.44130676  0.71053468  0.17221453     0.32400
H257        H  0.39323959  0.70638072  0.05132630     0.35300
H258        H  0.42661021  0.80295149  0.14752457     0.27900
H259        H  0.50537202  0.79714456  0.02933552     0.40700
H260        H  0.53612000  0.73783661  0.08100124     0.30800
H261        H  0.53186625  0.75773591  0.12583295     0.38400
H262        H  0.38253593  0.74939038  0.06707363     0.30300
H263        H  0.47758247  0.69623061  0.04472849     0.30300
H264        H  0.42896027  0.70292216  0.14616678     0.30600
Zr265      Zr  0.09293588  0.52610630  0.28437084     2.17500
O266        O  0.07022198  0.55012594  0.26287551    -0.51800
O267        O  0.11409575  0.51793150  0.24428689    -0.75000
O268        O  0.11469486  0.55466850  0.27769060    -0.81700
O269        O  0.04633639  0.49067350  0.27563316    -0.83500
O270        O  0.13966679  0.55623325  0.31246073    -0.79100
O271        O  0.06181231  0.51638551  0.25623598    -0.90700
O272        O  0.13545858  0.49276761  0.25395688    -0.76700
O273        O  0.12930995  0.51847678  0.30043781    -0.86200
O274        O  0.09479212  0.49291228  0.28556447    -0.85900
O275        O  0.09527543  0.54063072  0.32812338    -0.72600
O276        O  0.06364855  0.51580958  0.31424142    -0.84800
Zr277      Zr  0.10506275  0.48953917  0.37717544     2.26400
Zr278      Zr  0.13141464  0.53195667  0.34472467     2.06300
Zr279      Zr  0.06664503  0.48256692  0.31661561     2.10000
Zr280      Zr  0.13099352  0.48548041  0.30176789     1.78800
O281        O  0.02781621  0.48047920  0.33148829    -0.93600
O282        O  0.17080700  0.49171359  0.29568846    -0.41400
O283        O  0.10311998  0.47497402  0.33322337    -0.78000
O284        O  0.13438843  0.49874186  0.34626209    -0.96700
O285        O  0.10278948  0.52255123  0.37569749    -0.90000
O286        O  0.06853176  0.49656315  0.36066112    -0.92900
C287        C  0.12821046  0.50527564  0.23762510     1.00900
C288        C  0.04734951  0.50318058  0.25706615     1.13800
C289        C  0.13118558  0.56234168  0.29028187     1.04600
O290        O  0.17159056  0.53624716  0.33898504    -0.95000
O291        O  0.15337195  0.52418850  0.38407833    -0.90800
O292        O  0.13866649  0.49790244  0.40227630    -0.83900
C293        C  0.15339597  0.51090663  0.40135432     1.11200
O294        O  0.04776427  0.55707730  0.33981647    -0.97000
Zr295      Zr  0.06665063  0.52974776  0.35821191     1.88900
O296        O  0.08117964  0.49779880  0.41591410    -0.73600
O297        O  0.12782761  0.55990124  0.37253221    -0.52900
O298        O  0.07528581  0.55667912  0.38654051    -0.97600
O299        O  0.02602878  0.52629777  0.35852070    -0.54800
O300        O  0.05759678  0.52120155  0.40411578    -0.74200
C301        C  0.06530529  0.50939332  0.42112817     0.98200
O302        O  0.12345076  0.46942882  0.41031535    -0.63000
O303        O  0.06319448  0.45494401  0.28805189    -0.57800
O304        O  0.09140756  0.45757150  0.37654305    -0.94500
O305        O  0.06672027  0.45344137  0.34207842    -0.92900
O306        O  0.12285286  0.45636886  0.27834979    -0.93200
O307        O  0.15425700  0.45994467  0.31788009    -0.92000
C308        C  0.07770324  0.44750205  0.36278324     1.17000
H309        H  0.09233764  0.48757959  0.26776482     0.33000
H310        H  0.14894132  0.49499006  0.35290160     0.43800
H311        H  0.05697422  0.49138685  0.37215775     0.37400
H312        H  0.09416814  0.55401441  0.32643897     0.33800
H313        H  0.17581788  0.48254811  0.28191312     0.25600
H314        H  0.14345565  0.56363500  0.37652202     0.31600
H315        H  0.06172088  0.55870414  0.39775940     0.37500
H316        H  0.11176211  0.45001741  0.29008114     0.31900
H317        H  0.04688014  0.45310565  0.28563638     0.30800
H318        H  0.02165860  0.46966672  0.32147205     0.32500
H319        H  0.02099208  0.53286829  0.37514623     0.31500
H320        H  0.14751365  0.45637161  0.33550423     0.35500
H321        H  0.11133971  0.46361011  0.42112015     0.28200
H322        H  0.07922266  0.55473406  0.24737231     0.32400
H323        H  0.03888941  0.56235021  0.35499535     0.35300
H324        H  0.06873372  0.45869819  0.26990354     0.27900
H325        H  0.13022207  0.45913366  0.39969853     0.40700
H326        H  0.17642262  0.52543208  0.32795254     0.30800
H327        H  0.17142511  0.50382909  0.28615955     0.38400
H328        H  0.02342601  0.51297460  0.36249505     0.30300
H329        H  0.12222762  0.56960920  0.36000942     0.30300
H330        H  0.06991670  0.56055572  0.27604975     0.30600
Zr331      Zr  0.08692655  0.23163099  0.49843603     2.17500
O332        O  0.06374304  0.20924910  0.52291665    -0.51800
O333        O  0.10797593  0.23790498  0.53972216    -0.75000
O334        O  0.10428319  0.20063859  0.50189879    -0.81700
O335        O  0.04355362  0.27023804  0.50677171    -0.83500
O336        O  0.12527148  0.19606625  0.46392020    -0.79100
O337        O  0.05422570  0.24200416  0.52306843    -0.90700
O338        O  0.13484170  0.25908983  0.52998993    -0.76700
O339        O  0.12399306  0.23641595  0.48268442    -0.86200
O340        O  0.09289268  0.26453089  0.49933745    -0.85900
O341        O  0.08689625  0.21856222  0.45352186    -0.72600
O342        O  0.05943747  0.24553036  0.46900371    -0.84800
Zr343      Zr  0.10395281  0.26978640  0.40748357     2.26400
Zr344      Zr  0.12408425  0.22425566  0.43743918     2.06300
Zr345      Zr  0.06670142  0.27836062  0.46854713     2.10000
Zr346      Zr  0.12982320  0.26915356  0.48341248     1.78800
O347        O  0.02797731  0.28519971  0.45661408    -0.93600
O348        O  0.16900847  0.25975840  0.48631072    -0.41400
O349        O  0.10396461  0.28337897  0.45230599    -0.78000
O350        O  0.13124194  0.25706946  0.43823195    -0.96700
O351        O  0.09711592  0.23714787  0.40686370    -0.90000
O352        O  0.06682272  0.26567528  0.42379064    -0.92900
C353        C  0.12474229  0.24809184  0.54642255     1.00900
C354        C  0.04161169  0.25645649  0.52308090     1.13800
C355        C  0.11694561  0.19061358  0.48654622     1.04600
O356        O  0.16240813  0.21569830  0.44890528    -0.95000
O357        O  0.14908607  0.23220940  0.40099800    -0.90800
O358        O  0.13700242  0.25940255  0.38254019    -0.83900
C359        C  0.15088697  0.24579202  0.38434740     1.11200
O360        O  0.03477558  0.20940017  0.44193418    -0.97000
Zr361      Zr  0.06013045  0.23301757  0.42408855     1.88900
O362        O  0.07931457  0.26518064  0.36815995    -0.73600
O363        O  0.11917564  0.19980995  0.40361382    -0.52900
O364        O  0.06249987  0.20472953  0.39682394    -0.97600
O365        O  0.02105197  0.24286204  0.42170710    -0.54800
O366        O  0.05359102  0.24307306  0.37817438    -0.74200
C367        C  0.06220398  0.25510471  0.36211447     0.98200
O368        O  0.12664570  0.28908575  0.37741825    -0.63000
O369        O  0.06934249  0.30415703  0.50059903    -0.57800
O370        O  0.09137871  0.30206652  0.40729075    -0.94500
O371        O  0.06693875  0.30694977  0.44182782    -0.92900
O372        O  0.12404388  0.29735849  0.51011048    -0.93200
O373        O  0.15580242  0.29376028  0.47076447    -0.92000
C374        C  0.07761986  0.31239448  0.42058059     1.17000
H375        H  0.09093341  0.26955126  0.51741078     0.33000
H376        H  0.14618545  0.25988346  0.43210515     0.43800
H377        H  0.05612863  0.27228251  0.41269314     0.37400
H378        H  0.08369948  0.20537991  0.45409088     0.33800
H379        H  0.16894956  0.24844675  0.49777140     0.25600
H380        H  0.13283463  0.19205992  0.40511339     0.31600
H381        H  0.07310827  0.20775436  0.38200204     0.37500
H382        H  0.13206352  0.29523818  0.52743335     0.31900
H383        H  0.08260839  0.31133287  0.49461221     0.30800
H384        H  0.02474780  0.29727137  0.46553656     0.32500
H385        H  0.02127958  0.25529049  0.41307426     0.31500
H386        H  0.15178555  0.29681295  0.45176832     0.35500
H387        H  0.11606987  0.29443994  0.36406861     0.28200
H388        H  0.07300700  0.20495509  0.53837648     0.32400
H389        H  0.02501621  0.20584426  0.42650661     0.35300
H390        H  0.05642479  0.31226826  0.49625369     0.27900
H391        H  0.13174614  0.29974664  0.38860344     0.40700
H392        H  0.16618837  0.20538819  0.43632857     0.30800
H393        H  0.17289733  0.25512765  0.46794629     0.38400
H394        H  0.01672011  0.24536049  0.44079671     0.30300
H395        H  0.10702773  0.19188646  0.41091410     0.30300
H396        H  0.06229780  0.19829292  0.51079931     0.30600
Zr397      Zr  0.21731037  0.52537608  0.99604881     2.17500
O398        O  0.23985151  0.54920039  0.01848850    -0.51800
O399        O  0.19664643  0.51777390  0.03680664    -0.75000
O400        O  0.19721145  0.55487083  0.00178336    -0.81700
O401        O  0.26429606  0.48981036  0.00308335    -0.83500
O402        O  0.17254651  0.55727113  0.96685273    -0.79100
O403        O  0.25018123  0.51637478  0.02169237    -0.90700
O404        O  0.17317149  0.49378932  0.02724896    -0.76700
O405        O  0.18048985  0.51826297  0.98081172    -0.86200
O406        O  0.21434758  0.49220485  0.99581301    -0.85900
O407        O  0.21512662  0.53916004  0.95184844    -0.72600
O408        O  0.24579584  0.51407345  0.96585728    -0.84800
Zr409      Zr  0.20287172  0.48745039  0.90453315     2.26400
Zr410      Zr  0.17836257  0.53119355  0.93625761     2.06300
Zr411      Zr  0.24184890  0.48090578  0.96454915     2.10000
Zr412      Zr  0.17776798  0.48523737  0.98007375     1.78800
O413        O  0.28076870  0.47706237  0.95077201    -0.93600
O414        O  0.13795363  0.49168532  0.98566079    -0.41400
O415        O  0.20508209  0.47349533  0.94878727    -0.78000
O416        O  0.17439403  0.49803917  0.93558735    -0.96700
O417        O  0.20622990  0.52046831  0.90493247    -0.90000
O418        O  0.23977274  0.49398011  0.92004712    -0.92900
C419        C  0.18146224  0.50599623  0.04337288     1.00900
C420        C  0.26446017  0.50303872  0.02057804     1.13800
C421        C  0.18143312  0.56328349  0.98893685     1.04600
O422        O  0.13853784  0.53624100  0.94412707    -0.95000
O423        O  0.15539175  0.52226789  0.89807985    -0.90800
O424        O  0.17012366  0.49651790  0.87838140    -0.83900
C425        C  0.15517319  0.50932639  0.88014850     1.11200
O426        O  0.26849204  0.55127771  0.93688589    -0.97000
Zr427      Zr  0.24287365  0.52703514  0.92141065     1.88900
O428        O  0.22576407  0.49427370  0.86457477    -0.73600
O429        O  0.18068034  0.55826268  0.90672346    -0.52900
O430        O  0.23607215  0.55670332  0.89901538    -0.97600
O431        O  0.28258955  0.51953218  0.91701460    -0.54800
O432        O  0.24730807  0.51948546  0.87406130    -0.74200
C433        C  0.24012443  0.50681970  0.85797002     0.98200
O434        O  0.18093490  0.46567388  0.87722510    -0.63000
O435        O  0.24278993  0.45412089  0.99491519    -0.57800
O436        O  0.21857981  0.45620445  0.90351616    -0.94500
O437        O  0.24270765  0.45219958  0.93852249    -0.92900
O438        O  0.18428744  0.45643697  0.00486075    -0.93200
O439        O  0.15385247  0.46038819  0.96290969    -0.92000
C440        C  0.23242254  0.44632939  0.91726428     1.17000
H441        H  0.21685250  0.48714046  0.01371817     0.33000
H442        H  0.15968468  0.49446656  0.92922295     0.43800
H443        H  0.25090939  0.48838095  0.90836867     0.37400
H444        H  0.21682643  0.55252283  0.95302215     0.33800
H445        H  0.13282467  0.48278713  0.99969272     0.25600
H446        H  0.18192997  0.55305871  0.88813199     0.31600
H447        H  0.22489172  0.55389608  0.88473937     0.37500
H448        H  0.19427970  0.44905059  0.99292748     0.31900
H449        H  0.25869522  0.45021050  0.99526480     0.30800
H450        H  0.28628011  0.46642345  0.96163760     0.32500
H451        H  0.28331971  0.50879722  0.90440419     0.31500
H452        H  0.16162516  0.45581250  0.94641223     0.35500
H453        H  0.19102468  0.46147885  0.86245644     0.28200
H454        H  0.23100718  0.55328914  0.03445753     0.32400
H455        H  0.27643334  0.55563484  0.92039790     0.35300
H456        H  0.23992816  0.45914338  0.01333534     0.27900
H457        H  0.17840684  0.45456063  0.88869709     0.40700
H458        H  0.13622978  0.53322752  0.96354993     0.30800
H459        H  0.13733592  0.50397714  0.99475497     0.38400
H460        H  0.28685205  0.51433909  0.93489985     0.30300
H461        H  0.16548060  0.56376629  0.90737346     0.30300
H462        H  0.23990400  0.55999647  0.00600926     0.30600
Zr463      Zr  0.21942246  0.23129791  0.78862224     2.17500
O464        O  0.24239426  0.20761546  0.76645336    -0.51800
O465        O  0.20063295  0.23864072  0.74629290    -0.75000
O466        O  0.19941398  0.20166705  0.78196424    -0.81700
O467        O  0.26826398  0.26601793  0.78883832    -0.83500
O468        O  0.17219144  0.20041707  0.81415942    -0.79100
O469        O  0.25466976  0.24033568  0.76724771    -0.90700
O470        O  0.17531452  0.26129144  0.75490881    -0.76700
O471        O  0.18193150  0.23861878  0.80125577    -0.86200
O472        O  0.21678304  0.26449890  0.78889782    -0.85900
O473        O  0.21445343  0.21745181  0.83260339    -0.72600
O474        O  0.24586317  0.24225620  0.82175623    -0.84800
Zr475      Zr  0.20015339  0.26890360  0.88000584     2.26400
Zr476      Zr  0.17715328  0.22581455  0.84567572     2.06300
Zr477      Zr  0.24206587  0.27543761  0.82313073     2.10000
Zr478      Zr  0.17949139  0.27160257  0.80166238     1.78800
O479        O  0.27965147  0.28031445  0.84103136    -0.93600
O480        O  0.13952859  0.26662543  0.79471869    -0.41400
O481        O  0.20460097  0.28305334  0.83596881    -0.78000
O482        O  0.17350432  0.25901792  0.84596093    -0.96700
O483        O  0.20308616  0.23584553  0.87967729    -0.90000
O484        O  0.23765284  0.26207151  0.86716866    -0.92900
C485        C  0.18463692  0.24941977  0.73898653     1.00900
C486        C  0.26964708  0.25292395  0.77125328     1.13800
C487        C  0.18240225  0.19386229  0.79333947     1.04600
O488        O  0.13823377  0.21771092  0.83692915    -0.95000
O489        O  0.15069921  0.23541376  0.88004712    -0.90800
O490        O  0.16439450  0.26132251  0.90071497    -0.83900
C491        C  0.14930326  0.24886028  0.89709599     1.11200
O492        O  0.26378120  0.20298378  0.85101996    -0.97000
Zr493      Zr  0.24040287  0.22896676  0.86568308     1.88900
O494        O  0.22167221  0.26169009  0.92127208    -0.73600
O495        O  0.18015772  0.19922456  0.87600928    -0.52900
O496        O  0.23097993  0.20069049  0.89043750    -0.97600
O497        O  0.28048024  0.23438752  0.87150145    -0.54800
O498        O  0.24505360  0.23761328  0.91257319    -0.74200
C499        C  0.23692494  0.25002789  0.92842910     0.98200
O500        O  0.18036772  0.28900885  0.91214637    -0.63000
O501        O  0.24477351  0.30072249  0.79036833    -0.57800
O502        O  0.21392523  0.30076686  0.88060896    -0.94500
O503        O  0.24120271  0.30419360  0.84898591    -0.92900
O504        O  0.18945340  0.29962355  0.77663833    -0.93200
O505        O  0.15506980  0.29741786  0.81406107    -0.92000
C506        C  0.22903904  0.31037283  0.86850765     1.17000
H507        H  0.22046070  0.26966943  0.77132318     0.33000
H508        H  0.15848333  0.26288642  0.85052026     0.43800
H509        H  0.24830253  0.26756230  0.87957954     0.37400
H510        H  0.21600990  0.20407238  0.83146488     0.33800
H511        H  0.13628608  0.27205386  0.77665819     0.25600
H512        H  0.16481217  0.19400064  0.87660837     0.31600
H513        H  0.22202733  0.20493600  0.90621997     0.37500
H514        H  0.17815232  0.30045621  0.76196659     0.31900
H515        H  0.23276618  0.30954405  0.79558135     0.30800
H516        H  0.28456517  0.29231789  0.83318592     0.32500
H517        H  0.28407744  0.22958987  0.88983660     0.31500
H518        H  0.16328889  0.30411285  0.82856429     0.35500
H519        H  0.19199669  0.29448262  0.92407871     0.28200
H520        H  0.23411962  0.20405975  0.74979036     0.32400
H521        H  0.27077195  0.19803863  0.86776562     0.35300
H522        H  0.25887127  0.30724547  0.79503819     0.27900
H523        H  0.17449370  0.29955889  0.90135663     0.40700
H524        H  0.13345096  0.22629854  0.82235009     0.30800
H525        H  0.13802554  0.25303848  0.79194293     0.38400
H526        H  0.28208512  0.24804950  0.87317849     0.30300
H527        H  0.18893863  0.18989528  0.86569232     0.30300
H528        H  0.24169163  0.19652673  0.77834397     0.30600
Zr529      Zr  0.35185583  0.23647437  0.15763077     2.17500
O530        O  0.37471042  0.21463855  0.13162245    -0.51800
O531        O  0.32683373  0.24201193  0.11915442    -0.75000
O532        O  0.33480561  0.20577595  0.15493511    -0.81700
O533        O  0.39778267  0.27249867  0.14798641    -0.83500
O534        O  0.31064496  0.20209944  0.18996953    -0.79100
O535        O  0.38216024  0.24686768  0.12873084    -0.90700
O536        O  0.30494658  0.26696512  0.12898121    -0.76700
O537        O  0.31539374  0.24311329  0.17416322    -0.86200
O538        O  0.34851961  0.26947163  0.15789003    -0.85900
O539        O  0.35173312  0.22271717  0.20212654    -0.72600
O540        O  0.38093585  0.24735240  0.18761484    -0.84800
Zr541      Zr  0.33882713  0.27443661  0.25002162     2.26400
Zr542      Zr  0.31507646  0.22970833  0.21853117     2.06300
Zr543      Zr  0.37669911  0.28036939  0.18841152     2.10000
Zr544      Zr  0.31243956  0.27621956  0.17532923     1.78800
O545        O  0.41654285  0.28397297  0.19755465    -0.93600
O546        O  0.27206968  0.27138155  0.17336725    -0.41400
O547        O  0.34036530  0.28817848  0.20559549    -0.78000
O548        O  0.31024116  0.26297060  0.21971651    -0.96700
O549        O  0.34268184  0.24135897  0.24948307    -0.90000
O550        O  0.37544718  0.26783687  0.23333885    -0.92900
C551        C  0.31153602  0.25390761  0.11311634     1.00900
C552        C  0.39676140  0.25996003  0.12943988     1.13800
C553        C  0.32033694  0.19622312  0.16823610     1.04600
O554        O  0.27510654  0.22593540  0.21039058    -0.95000
O555        O  0.29512850  0.23660709  0.25965614    -0.90800
O556        O  0.30612371  0.26466046  0.27624919    -0.83900
C557        C  0.29323280  0.25031270  0.27617685     1.11200
O558        O  0.40384828  0.21044466  0.21606974    -0.97000
Zr559      Zr  0.37921484  0.23497400  0.23290043     1.88900
O560        O  0.35918443  0.26599267  0.29082343    -0.73600
O561        O  0.31826245  0.20211218  0.24701104    -0.52900
O562        O  0.37311738  0.20556073  0.25638829    -0.97600
O563        O  0.41877684  0.24297275  0.23688020    -0.54800
O564        O  0.38335551  0.24258663  0.28104430    -0.74200
C565        C  0.37424606  0.25417151  0.29767212     0.98200
O566        O  0.31699566  0.29792168  0.27417623    -0.63000
O567        O  0.37508735  0.30868049  0.16128399    -0.57800
O568        O  0.35934335  0.30409317  0.25504102    -0.94500
O569        O  0.38156965  0.30673476  0.21784841    -0.92900
O570        O  0.32092800  0.30449839  0.15012849    -0.93200
O571        O  0.28986910  0.30250631  0.19050111    -0.92000
C572        C  0.37425028  0.31263011  0.24073769     1.17000
H573        H  0.35045496  0.27456535  0.13988673     0.33000
H574        H  0.29551933  0.26605795  0.22658480     0.43800
H575        H  0.38679869  0.27344959  0.24472039     0.37400
H576        H  0.35401013  0.20944653  0.20099834     0.33800
H577        H  0.26719212  0.27779631  0.15658845     0.25600
H578        H  0.30373595  0.19560711  0.24491433     0.31600
H579        H  0.36562780  0.20893917  0.27366454     0.37500
H580        H  0.30913727  0.30526025  0.13603157     0.31900
H581        H  0.39088481  0.31270988  0.15953434     0.30800
H582        H  0.42139114  0.29433875  0.18570277     0.32500
H583        H  0.41958553  0.25236115  0.25160062     0.31500
H584        H  0.29910044  0.30868111  0.20459328     0.35500
H585        H  0.32644618  0.30187978  0.28968690     0.28200
H586        H  0.36524729  0.21072789  0.11612051     0.32400
H587        H  0.41249102  0.20617122  0.23205727     0.35300
H588        H  0.37087168  0.30452641  0.14279210     0.27900
H589        H  0.31642101  0.30883317  0.26194454     0.40700
H590        H  0.26878919  0.23860898  0.21235833     0.30800
H591        H  0.27030814  0.25798080  0.16916161     0.38400
H592        H  0.42220130  0.24999846  0.22010790     0.30300
H593        H  0.32923468  0.19397801  0.23766687     0.30300
H594        H  0.37629194  0.20341609  0.14311540     0.30600
Zr595      Zr  0.35340708  0.01953697  0.12973296     2.17500
O596        O  0.37153653  0.03933348  0.16354124    -0.51800
O597        O  0.33082557  0.01241285  0.16981455    -0.75000
O598        O  0.33783354  0.05095244  0.13031570    -0.81700
O599        O  0.40433362  0.98701372  0.13226149    -0.83500
O600        O  0.31317932  0.05399687  0.09567378    -0.79100
O601        O  0.39006324  0.01383875  0.14954403    -0.90700
O602        O  0.30343046  0.99212998  0.15797877    -0.76700
O603        O  0.31660519  0.01301946  0.11385319    -0.86200
O604        O  0.34972213  0.98647928  0.13101233    -0.85900
O605        O  0.35259598  0.03281173  0.08473250    -0.72600
O606        O  0.38175532  0.00771157  0.09975955    -0.84800
Zr607      Zr  0.33948297  0.98043032  0.03931013     2.26400
Zr608      Zr  0.31571014  0.02556750  0.06884850     2.06300
Zr609      Zr  0.37751754  0.97470477  0.10036530     2.10000
Zr610      Zr  0.31327130  0.97993433  0.11390340     1.78800
O611        O  0.41598712  0.96418399  0.09400594    -0.93600
O612        O  0.27259923  0.98280535  0.11230177    -0.41400
O613        O  0.34101301  0.96717528  0.08397317    -0.78000
O614        O  0.31086079  0.99235033  0.06912318    -0.96700
O615        O  0.34343915  0.01345769  0.03841300    -0.90000
O616        O  0.37625506  0.98688479  0.05527720    -0.92900
C617        C  0.31298996  0.00306149  0.17494542     1.00900
C618        C  0.40542479  0.00140452  0.14760678     1.13800
C619        C  0.32339894  0.06034750  0.11670794     1.04600
O620        O  0.27630822  0.03038744  0.07963247    -0.95000
O621        O  0.29397346  0.01734599  0.02924419    -0.90800
O622        O  0.30678840  0.98949984  0.01326771    -0.83900
C623        C  0.29312316  0.00326589  0.01325990     1.11200
O624        O  0.40321086  0.04555757  0.07060875    -0.97000
Zr625      Zr  0.38009473  0.01977319  0.05467517     1.88900
O626        O  0.35953488  0.98811893  0.99789736    -0.73600
O627        O  0.31686772  0.05167480  0.03735535    -0.52900
O628        O  0.37557725  0.04744388  0.02661329    -0.97600
O629        O  0.41990360  0.01215787  0.05433365    -0.54800
O630        O  0.38547387  0.01011552  0.00787629    -0.74200
C631        C  0.37580704  0.99887132  0.99132014     0.98200
O632        O  0.32038897  0.95397191  0.01851554    -0.63000
O633        O  0.37215031  0.95082787  0.13484944    -0.57800
O634        O  0.35887808  0.95074009  0.03435137    -0.94500
O635        O  0.38187104  0.94802181  0.07075955    -0.92900
O636        O  0.32013756  0.95384399  0.14427272    -0.93200
O637        O  0.29236463  0.95249641  0.09962257    -0.92000
C638        C  0.37370117  0.94199359  0.04828776     1.17000
H639        H  0.35180410  0.98180228  0.14923524     0.33000
H640        H  0.29610836  0.98906046  0.06262776     0.43800
H641        H  0.38748287  0.98104984  0.04394911     0.37400
H642        H  0.35517498  0.04605935  0.08499995     0.33800
H643        H  0.26736967  0.97889274  0.13051680     0.25600
H644        H  0.30234960  0.05811665  0.03994394     0.31600
H645        H  0.36560764  0.04356807  0.01155401     0.37500
H646        H  0.30724851  0.95385728  0.15694841     0.31900
H647        H  0.36126999  0.94207485  0.12663723     0.30800
H648        H  0.41774355  0.95337094  0.10625945     0.32500
H649        H  0.42147593  0.00194473  0.04093681     0.31500
H650        H  0.29335026  0.95256374  0.07953332     0.35500
H651        H  0.30470248  0.95456662  0.02501031     0.28200
H652        H  0.35963926  0.04273306  0.17666799     0.32400
H653        H  0.41327513  0.04865702  0.05526291     0.35300
H654        H  0.38641579  0.94381274  0.13519965     0.27900
H655        H  0.31963717  0.95673856  0.99882588     0.40700
H656        H  0.27559118  0.03016136  0.09973077     0.30800
H657        H  0.26975638  0.99636689  0.11176899     0.38400
H658        H  0.42266280  0.00617769  0.07213363     0.30300
H659        H  0.32814359  0.06032912  0.04499597     0.30300
H660        H  0.37545725  0.05106373  0.15413910     0.30600
Zr661      Zr  0.45667927  0.23626849  0.63134812     2.17500
O662        O  0.44021831  0.21658236  0.66645165    -0.51800
O663        O  0.48180587  0.24407488  0.66918518    -0.75000
O664        O  0.47165866  0.20450105  0.63047257    -0.81700
O665        O  0.40807789  0.27033263  0.64060758    -0.83500
O666        O  0.49367298  0.20073828  0.59341126    -0.79100
O667        O  0.42259314  0.24315504  0.65613760    -0.90700
O668        O  0.50460744  0.26769640  0.65662489    -0.76700
O669        O  0.49235268  0.24266194  0.61214537    -0.86200
O670        O  0.46000509  0.26937801  0.63086364    -0.85900
O671        O  0.45451887  0.22266763  0.58657489    -0.72600
O672        O  0.42627289  0.24750994  0.60367457    -0.84800
Zr673      Zr  0.46508534  0.27439061  0.53856995     2.26400
Zr674      Zr  0.49050550  0.22948574  0.56751227     2.06300
Zr675      Zr  0.43031875  0.28060205  0.60259888     2.10000
Zr676      Zr  0.49532934  0.27577107  0.61065517     1.78800
O677        O  0.39078866  0.28744420  0.59537393    -0.93600
O678        O  0.53546871  0.26964342  0.61205477    -0.41400
O679        O  0.46580961  0.28803465  0.58310898    -0.78000
O680        O  0.49518121  0.26262780  0.56615537    -0.96700
O681        O  0.46117125  0.24133159  0.53931899    -0.90000
O682        O  0.42930148  0.26806020  0.55768717    -0.92900
C683        C  0.49759508  0.25583669  0.67395404     1.00900
C684        C  0.40787356  0.25614420  0.65633901     1.13800
C685        C  0.48465143  0.19462871  0.61535647     1.04600
O686        O  0.53019492  0.22580573  0.57744574    -0.95000
O687        O  0.50965951  0.23737125  0.52584590    -0.90800
O688        O  0.49417216  0.26343460  0.50783497    -0.83900
C689        C  0.50862571  0.25018757  0.50775081     1.11200
O690        O  0.40069851  0.21109165  0.57610564    -0.97000
Zr691      Zr  0.42545997  0.23520033  0.55841912     1.88900
O692        O  0.44251652  0.26626503  0.49909587    -0.73600
O693        O  0.48971030  0.20305042  0.53641058    -0.52900
O694        O  0.42847416  0.20506933  0.53594318    -0.97600
O695        O  0.38640566  0.24521301  0.55790044    -0.54800
O696        O  0.42029871  0.24179970  0.51025583    -0.74200
C697        C  0.42789559  0.25374496  0.49318196     0.98200
O698        O  0.48882927  0.29868136  0.51912681    -0.63000
O699        O  0.43373472  0.30647618  0.63438737    -0.57800
O700        O  0.44477441  0.30410509  0.53471725    -0.94500
O701        O  0.42516155  0.30762958  0.57397183    -0.92900
O702        O  0.48992035  0.30459567  0.63593446    -0.93200
O703        O  0.51798111  0.30021758  0.59021470    -0.92000
C704        C  0.43152759  0.31332165  0.55049511     1.17000
H705        H  0.45888520  0.27454952  0.64893694     0.33000
H706        H  0.50942859  0.26576415  0.55805294     0.43800
H707        H  0.41753361  0.27376549  0.54710757     0.37400
H708        H  0.45180097  0.20946341  0.58725646     0.33800
H709        H  0.54125946  0.27777887  0.62672736     0.25600
H710        H  0.50436795  0.19682196  0.53892537     0.31600
H711        H  0.44088741  0.20656838  0.52277872     0.37500
H712        H  0.50481332  0.30745552  0.64374444     0.31900
H713        H  0.44459974  0.31502989  0.62574029     0.30800
H714        H  0.38761708  0.29838950  0.60701385     0.32500
H715        H  0.38494536  0.25335088  0.54178952     0.31500
H716        H  0.50768622  0.30662889  0.57754435     0.35500
H717        H  0.48543853  0.31014420  0.52951120     0.28200
H718        H  0.45274341  0.21317484  0.67864122     0.32400
H719        H  0.38911898  0.20915835  0.56196986     0.35300
H720        H  0.41921694  0.31309194  0.63321089     0.27900
H721        H  0.50422656  0.29552474  0.52503950     0.40700
H722        H  0.53676102  0.23824194  0.57408129     0.30800
H723        H  0.53678897  0.25688588  0.61945806     0.38400
H724        H  0.38497995  0.25372780  0.57363925     0.30300
H725        H  0.47863049  0.19430171  0.54419887     0.30300
H726        H  0.43574190  0.20483930  0.65738538     0.30600
Zr727      Zr  0.44886298  0.01682201  0.65496875     2.17500
O728        O  0.42837267  0.03580733  0.62227345    -0.51800
O729        O  0.47246711  0.00956073  0.61567735    -0.75000
O730        O  0.46391420  0.04851256  0.65146842    -0.81700
O731        O  0.40098917  0.98113645  0.65289075    -0.83500
O732        O  0.49072198  0.05182158  0.68361375    -0.79100
O733        O  0.41389090  0.00770573  0.63348381    -0.90700
O734        O  0.49835995  0.98786899  0.62712571    -0.76700
O735        O  0.48593023  0.01130202  0.67044391    -0.86200
O736        O  0.45345286  0.98385454  0.65627641    -0.85900
O737        O  0.44954908  0.03146481  0.69905583    -0.72600
O738        O  0.42115631  0.00545520  0.68643393    -0.84800
Zr739      Zr  0.46571099  0.98092362  0.74820150     2.26400
Zr740      Zr  0.48688763  0.02553896  0.71431352     2.06300
Zr741      Zr  0.42666665  0.97252737  0.68837432     2.10000
Zr742      Zr  0.49021657  0.97833253  0.67284620     1.78800
O743        O  0.38806665  0.96398900  0.69846969    -0.93600
O744        O  0.53067767  0.98273700  0.67173476    -0.41400
O745        O  0.46356435  0.96627179  0.70443928    -0.78000
O746        O  0.49315922  0.99251019  0.71656118    -0.96700
O747        O  0.46041903  0.01382801  0.74661416    -0.90000
O748        O  0.42844341  0.98596657  0.73273096    -0.92900
C749        C  0.48940540  0.99912908  0.61023896     1.00900
C750        C  0.39937456  0.99463712  0.63607466     1.13800
C751        C  0.47963650  0.05783944  0.66307231     1.04600
O752        O  0.52642560  0.03130691  0.70554250    -0.95000
O753        O  0.50946685  0.01987328  0.75381033    -0.90800
O754        O  0.49844837  0.99254320  0.77263782    -0.83900
C755        C  0.51151728  0.00672592  0.77116117     1.11200
O756        O  0.39757273  0.04282506  0.71562017    -0.97000
Zr757      Zr  0.42324273  0.01866205  0.73103588     1.88900
O758        O  0.44545217  0.98899159  0.78947101    -0.73600
O759        O  0.48220102  0.05353192  0.74179457    -0.52900
O760        O  0.42703546  0.04761377  0.75646899    -0.97600
O761        O  0.38440234  0.00836708  0.73483726    -0.54800
O762        O  0.41981174  0.01104210  0.77890104    -0.74200
C763        C  0.42955393  0.00022081  0.79589309     0.98200
O764        O  0.48649406  0.95630272  0.77112989    -0.63000
O765        O  0.43160980  0.94623747  0.65761491    -0.57800
O766        O  0.44857958  0.95010995  0.75380111    -0.94500
O767        O  0.42412464  0.94633612  0.71885299    -0.92900
O768        O  0.48242437  0.95097809  0.64512437    -0.93200
O769        O  0.51138692  0.95168322  0.68935991    -0.92000
C770        C  0.43362287  0.94076473  0.74074180     1.17000
H771        H  0.45116219  0.97839998  0.63851542     0.33000
H772        H  0.50817560  0.98991986  0.72289398     0.43800
H773        H  0.41766972  0.98018567  0.74468602     0.37400
H774        H  0.44672302  0.04464517  0.69776765     0.33800
H775        H  0.53593180  0.97485256  0.65647891     0.25600
H776        H  0.49689411  0.05990264  0.74080650     0.31600
H777        H  0.44108853  0.04618485  0.76693368     0.37500
H778        H  0.49667169  0.94833423  0.63555569     0.31900
H779        H  0.44030645  0.93702333  0.66819476     0.30800
H780        H  0.38524297  0.95261196  0.68760821     0.32500
H781        H  0.38383038  0.00051146  0.75132649     0.31500
H782        H  0.51247122  0.95367171  0.70923440     0.35500
H783        H  0.50217262  0.95743338  0.76475294     0.28200
H784        H  0.43968834  0.04029562  0.60911955     0.32400
H785        H  0.38690178  0.04475281  0.73078972     0.35300
H786        H  0.41650086  0.94067145  0.65594530     0.27900
H787        H  0.48685932  0.95989096  0.79056716     0.40700
H788        H  0.53342589  0.01881331  0.70547663     0.30800
H789        H  0.53275280  0.99564915  0.66521439     0.38400
H790        H  0.38232434  0.99952799  0.71958806     0.30300
H791        H  0.47194726  0.06159815  0.73127847     0.30300
H792        H  0.42345367  0.04702986  0.63236897     0.30600
Zr793      Zr  0.58920376  0.03089899  0.28906396     2.17500
O794        O  0.56618675  0.05499643  0.26816971    -0.51800
O795        O  0.60941801  0.02344747  0.24761102    -0.75000
O796        O  0.60924015  0.06050583  0.28428070    -0.81700
O797        O  0.54378402  0.99461198  0.27905351    -0.83500
O798        O  0.63011552  0.06436595  0.32250492    -0.79100
O799        O  0.55706889  0.02191416  0.26211286    -0.90700
O800        O  0.63285077  0.99944668  0.25663524    -0.76700
O801        O  0.62602440  0.02462553  0.30498268    -0.86200
O802        O  0.59299186  0.99779274  0.28842130    -0.85900
O803        O  0.59029454  0.04408774  0.33394343    -0.72600
O804        O  0.56049708  0.01867628  0.31834773    -0.84800
Zr805      Zr  0.60291988  0.99234995  0.37986506     2.26400
Zr806      Zr  0.62701949  0.03674585  0.35025204     2.06300
Zr807      Zr  0.56526600  0.98555809  0.31849718     2.10000
Zr808      Zr  0.62965709  0.99170352  0.30458574     1.78800
O809        O  0.52576027  0.98070808  0.32864380    -0.93600
O810        O  0.66860280  0.00152276  0.30062954    -0.41400
O811        O  0.60206709  0.97902573  0.33489704    -0.78000
O812        O  0.63173648  0.00367832  0.34983843    -0.96700
O813        O  0.59880853  0.02525624  0.38042044    -0.90000
O814        O  0.56605432  0.99823228  0.36343965    -0.92900
C815        C  0.62422365  0.01144338  0.24041492     1.00900
C816        C  0.54336167  0.00815939  0.26212850     1.13800
C817        C  0.62244226  0.07000247  0.29961469     1.04600
O818        O  0.66631034  0.04235465  0.33972152    -0.95000
O819        O  0.65028747  0.02793015  0.38825601    -0.90800
O820        O  0.63569840  0.00153162  0.40620786    -0.83900
C821        C  0.65050556  0.01451989  0.40539200     1.11200
O822        O  0.54125122  0.05803397  0.34650985    -0.97000
Zr823      Zr  0.56225805  0.03129711  0.36328116     1.88900
O824        O  0.57842653  0.99803165  0.41914183    -0.73600
O825        O  0.62483557  0.06231376  0.38271651    -0.52900
O826        O  0.56795462  0.05787597  0.39338675    -0.97600
O827        O  0.52191645  0.02596728  0.36339630    -0.54800
O828        O  0.55388536  0.02099529  0.40869530    -0.74200
C829        C  0.56180870  0.00877610  0.42492447     0.98200
O830        O  0.62335312  0.97107227  0.40953276    -0.63000
O831        O  0.56656702  0.95872530  0.28809390    -0.57800
O832        O  0.58968010  0.96040368  0.37820875    -0.94500
O833        O  0.56433350  0.95664972  0.34434343    -0.92900
O834        O  0.62839625  0.96266282  0.27907226    -0.93200
O835        O  0.65370077  0.96719329  0.32234331    -0.92000
C836        C  0.57557302  0.95058497  0.36475030     1.17000
H837        H  0.59083813  0.99284576  0.27036259     0.33000
H838        H  0.64642680  0.00022257  0.35637542     0.43800
H839        H  0.55475155  0.99223648  0.37444039     0.37400
H840        H  0.58812484  0.05741385  0.33317582     0.33800
H841        H  0.67591844  0.99160547  0.28979668     0.25600
H842        H  0.63798900  0.07021946  0.37859923     0.31600
H843        H  0.57772920  0.05324216  0.40814961     0.37500
H844        H  0.61245839  0.95889390  0.27949947     0.31900
H845        H  0.55082764  0.95448863  0.28666872     0.30800
H846        H  0.52120746  0.97022233  0.31677781     0.32500
H847        H  0.51630907  0.03271994  0.37959051     0.31500
H848        H  0.64510401  0.96179669  0.33763857     0.35500
H849        H  0.61200381  0.96465723  0.42082799     0.28200
H850        H  0.57492905  0.05962313  0.25246179     0.32400
H851        H  0.53287704  0.06295544  0.36234882     0.35300
H852        H  0.57005442  0.96382041  0.26990641     0.27900
H853        H  0.62966050  0.96132666  0.39748509     0.40700
H854        H  0.66958646  0.05476618  0.34755385     0.30800
H855        H  0.66825946  0.01240192  0.28831945     0.38400
H856        H  0.52013856  0.01265053  0.36804260     0.30300
H857        H  0.61178848  0.06975859  0.37675270     0.30300
H858        H  0.56598474  0.06543608  0.28134093     0.30600
Zr859      Zr  0.59273375  0.73562184  0.49686873     2.17500
O860        O  0.57305286  0.71310194  0.52523210    -0.51800
O861        O  0.61499804  0.74312556  0.53674762    -0.75000
O862        O  0.61137971  0.70511724  0.49832323    -0.81700
O863        O  0.54420677  0.76948406  0.50435024    -0.83500
O864        O  0.63383241  0.70317387  0.46130651    -0.79100
O865        O  0.55831922  0.74236082  0.52095775    -0.90700
O866        O  0.63909638  0.76644374  0.52689783    -0.76700
O867        O  0.62880432  0.74183750  0.47882901    -0.86200
O868        O  0.59698935  0.76873421  0.49816843    -0.85900
O869        O  0.59141041  0.72279582  0.45177827    -0.72600
O870        O  0.56354793  0.74842709  0.46900360    -0.84800
Zr871      Zr  0.60350613  0.77485952  0.40589382     2.26400
Zr872      Zr  0.62746262  0.73002299  0.43343062     2.06300
Zr873      Zr  0.56858268  0.78149128  0.46941888     2.10000
Zr874      Zr  0.63300836  0.77475600  0.47959071     1.78800
O875        O  0.52987363  0.79095958  0.46209492    -0.93600
O876        O  0.67215143  0.76515440  0.48073627    -0.41400
O877        O  0.60465442  0.78799756  0.45090317    -0.78000
O878        O  0.63302363  0.76291186  0.43411766    -0.96700
O879        O  0.59862401  0.74205424  0.40482427    -0.90000
O880        O  0.56735878  0.76926131  0.42428316    -0.92900
C881        C  0.63068662  0.75449280  0.54333738     1.00900
C882        C  0.54343049  0.75519644  0.51989382     1.13800
C883        C  0.62576261  0.69655604  0.48335971     1.04600
O884        O  0.66764265  0.72550737  0.43887191    -0.95000
O885        O  0.64741484  0.73785306  0.39261048    -0.90800
O886        O  0.63416004  0.76534700  0.37681895    -0.83900
C887        C  0.64774596  0.75152541  0.37600003     1.11200
O888        O  0.54053659  0.70989597  0.43941182    -0.97000
Zr889      Zr  0.56270734  0.73633175  0.42389802     1.88900
O890        O  0.57883154  0.76909466  0.36706407    -0.73600
O891        O  0.62231793  0.70309018  0.40390378    -0.52900
O892        O  0.56645457  0.70922234  0.39436211    -0.97600
O893        O  0.52301718  0.74405825  0.42747576    -0.54800
O894        O  0.55328637  0.74722392  0.37890547    -0.74200
C895        C  0.56165219  0.75885944  0.36199994     0.98200
O896        O  0.62565714  0.79690549  0.37943820    -0.63000
O897        O  0.57391325  0.80526373  0.50421874    -0.57800
O898        O  0.58791404  0.80595679  0.40564139    -0.94500
O899        O  0.56665287  0.81026068  0.44326745    -0.92900
O900        O  0.63100199  0.80370569  0.50531869    -0.93200
O901        O  0.65711883  0.79901338  0.46114029    -0.92000
C902        C  0.57521994  0.81593945  0.42078268     1.17000
H903        H  0.59549300  0.77354815  0.51641572     0.33000
H904        H  0.64748396  0.76595138  0.42648641     0.43800
H905        H  0.55584600  0.77552671  0.41395360     0.37400
H906        H  0.58912407  0.70951329  0.45242063     0.33800
H907        H  0.67954711  0.77424080  0.49294212     0.25600
H908        H  0.63675070  0.69631850  0.40471281     0.31600
H909        H  0.57497098  0.71367071  0.37837068     0.37500
H910        H  0.64464787  0.80372986  0.51676225     0.31900
H911        H  0.58038999  0.81604714  0.49448780     0.30800
H912        H  0.52663277  0.79994434  0.47686876     0.32500
H913        H  0.52161869  0.75668819  0.41966012     0.31500
H914        H  0.65297015  0.79980316  0.44169493     0.35500
H915        H  0.61538278  0.80207715  0.36558662     0.28200
H916        H  0.58392736  0.70928111  0.53934193     0.32400
H917        H  0.52945410  0.70753482  0.42483313     0.35300
H918        H  0.55857486  0.80927715  0.50916723     0.27900
H919        H  0.62906952  0.80740025  0.39184268     0.40700
H920        H  0.67114689  0.71428143  0.42796067     0.30800
H921        H  0.67219512  0.75337095  0.49113373     0.38400
H922        H  0.52033666  0.74585043  0.44717159     0.30300
H923        H  0.61160750  0.69496884  0.41365446     0.30300
H924        H  0.57076779  0.70193332  0.51373608     0.30600
Zr925      Zr  0.71223642  0.02939748  0.99713638     2.17500
O926        O  0.73509470  0.05313674  0.01929349    -0.51800
O927        O  0.68940622  0.02304841  0.03699763    -0.75000
O928        O  0.69353819  0.05994227  0.99889049    -0.81700
O929        O  0.75705720  0.99269052  0.01027328    -0.83500
O930        O  0.67382237  0.06322942  0.95970253    -0.79100
O931        O  0.74336241  0.02035046  0.02566515    -0.90700
O932        O  0.66568927  0.99935086  0.02713572    -0.76700
O933        O  0.67608270  0.02329428  0.97912065    -0.86200
O934        O  0.70782318  0.99631658  0.99842552    -0.85900
O935        O  0.71374196  0.04171143  0.95191733    -0.72600
O936        O  0.74166307  0.01606618  0.96995610    -0.84800
Zr937      Zr  0.70104950  0.98927449  0.90634041     2.26400
Zr938      Zr  0.67760846  0.03483302  0.93362960     2.06300
Zr939      Zr  0.73637368  0.98304381  0.97016275     2.10000
Zr940      Zr  0.67180912  0.99034738  0.98017917     1.78800
O941        O  0.77575454  0.97852733  0.95900870    -0.93600
O942        O  0.63227909  0.99877445  0.98194262    -0.41400
O943        O  0.70007076  0.97674008  0.95168624    -0.78000
O944        O  0.67174148  0.00186323  0.93479422    -0.96700
O945        O  0.70640723  0.02211117  0.90528159    -0.90000
O946        O  0.73742649  0.99475669  0.92464180    -0.92900
C947        C  0.67382457  0.01153403  0.04345892     1.00900
C948        C  0.75711377  0.00663848  0.02666656     1.13800
C949        C  0.68100772  0.06933419  0.98259846     1.04600
O950        O  0.63815108  0.04189159  0.94088116    -0.95000
O951        O  0.65566503  0.02577750  0.89481907    -0.90800
O952        O  0.66726350  0.99728505  0.88068421    -0.83900
C953        C  0.65373347  0.01121545  0.87994945     1.11200
O954        O  0.76744395  0.05147395  0.94271834    -0.97000
Zr955      Zr  0.74236525  0.02771764  0.92457773     1.88900
O956        O  0.72646441  0.99508763  0.86789663    -0.73600
O957        O  0.68223860  0.06029098  0.90151554    -0.52900
O958        O  0.73906792  0.05673212  0.89934335    -0.97600
O959        O  0.78178410  0.01876669  0.92387288    -0.54800
O960        O  0.74923774  0.01941507  0.87789643    -0.74200
C961        C  0.74198593  0.00679990  0.86175878     0.98200
O962        O  0.68390374  0.96877419  0.87267392    -0.63000
O963        O  0.73572980  0.95691599  0.00169710    -0.57800
O964        O  0.71246282  0.95672028  0.91121904    -0.94500
O965        O  0.73643284  0.95310958  0.94658340    -0.92900
O966        O  0.67546190  0.96127696  0.00512220    -0.93200
O967        O  0.64649259  0.96643449  0.96315568    -0.92000
C968        C  0.72538629  0.94673110  0.92617500     1.17000
H969        H  0.70910207  0.99163120  0.01672853     0.33000
H970        H  0.65697984  0.99863753  0.92825718     0.43800
H971        H  0.74882815  0.98843553  0.91417675     0.37400
H972        H  0.71633248  0.05500525  0.95235072     0.33800
H973        H  0.62607039  0.99146974  0.99723555     0.25600
H974        H  0.68567817  0.05418782  0.88393981     0.31600
H975        H  0.72956276  0.05366195  0.88347604     0.37500
H976        H  0.68499314  0.95330147  0.99343875     0.31900
H977        H  0.75168007  0.95359802  0.00436348     0.30800
H978        H  0.77886111  0.96538414  0.96368749     0.32500
H979        H  0.78263192  0.00771176  0.91187817     0.31500
H980        H  0.65352248  0.96207553  0.94605436     0.35500
H981        H  0.69634872  0.96188623  0.86392982     0.28200
H982        H  0.72562913  0.05845072  0.03391293     0.32400
H983        H  0.77694322  0.05539122  0.92724226     0.35300
H984        H  0.73096048  0.96223564  0.01934746     0.27900
H985        H  0.67548838  0.95934737  0.88319110     0.40700
H986        H  0.63089310  0.02960510  0.94317013     0.30800
H987        H  0.63210397  0.01179847  0.98854874     0.38400
H988        H  0.78476300  0.01389029  0.94231988     0.30300
H989        H  0.66695105  0.06538111  0.89913199     0.30300
H990        H  0.73674172  0.06323682  0.00577612     0.30600
Zr991      Zr  0.71886006  0.73263997  0.78784022     2.17500
O992        O  0.74208698  0.70960797  0.76461940    -0.51800
O993        O  0.69936489  0.74086465  0.74617600    -0.75000
O994        O  0.69906620  0.70341614  0.77985759    -0.81700
O995        O  0.76702864  0.76674618  0.78789291    -0.83500
O996        O  0.67198315  0.70142276  0.81216502    -0.79100
O997        O  0.75354277  0.74148817  0.76544571    -0.90700
O998        O  0.67361623  0.76306258  0.75620062    -0.76700
O999        O  0.68148872  0.73926562  0.80166110    -0.86200
O1000       O  0.71587378  0.76574918  0.78968265    -0.85900
O1001       O  0.71474686  0.71766882  0.83121540    -0.72600
O1002       O  0.74573846  0.74296401  0.82080968    -0.84800
Zr1003     Zr  0.70057488  0.76809319  0.88112592     2.26400
Zr1004     Zr  0.67760697  0.72547749  0.84558389     2.06300
Zr1005     Zr  0.74181307  0.77606696  0.82364914     2.10000
Zr1006     Zr  0.67862173  0.77217754  0.80354029     1.78800
O1007       O  0.77930679  0.77966145  0.84245259    -0.93600
O1008       O  0.63843844  0.76703745  0.79917123    -0.41400
O1009       O  0.70439114  0.78290625  0.83753516    -0.78000
O1010       O  0.67350696  0.75861153  0.84736537    -0.96700
O1011       O  0.70389888  0.73506849  0.87939321    -0.90000
O1012       O  0.73801109  0.76182643  0.86719093    -0.92900
C1013       C  0.68313455  0.75169527  0.73962961     1.00900
C1014       C  0.76839953  0.75411358  0.76952663     1.13800
C1015       C  0.68207174  0.69549092  0.79087501     1.04600
O1016       O  0.63922299  0.71545283  0.83750306    -0.95000
O1017       O  0.65100826  0.73433020  0.88020077    -0.90800
O1018       O  0.66535400  0.75924182  0.90277252    -0.83900
C1019       C  0.64998616  0.74706972  0.89840900     1.11200
O1020       O  0.76303942  0.70213703  0.84883513    -0.97000
Zr1021     Zr  0.74104198  0.72875113  0.86428262     1.88900
O1022       O  0.72303532  0.76058432  0.92147426    -0.73600
O1023       O  0.68284074  0.69896351  0.87562345    -0.52900
O1024       O  0.73186993  0.70125095  0.89101020    -0.97600
O1025       O  0.78141279  0.73345003  0.86768550    -0.54800
O1026       O  0.74756940  0.73768358  0.91070943    -0.74200
C1027       C  0.73923689  0.74948982  0.92738180     0.98200
O1028       O  0.68059653  0.78800598  0.91330625    -0.63000
O1029       O  0.74595636  0.80273832  0.79352419    -0.57800
O1030       O  0.71424076  0.80011719  0.88212671    -0.94500
O1031       O  0.74022112  0.80500617  0.84946253    -0.92900
O1032       O  0.68709805  0.80081054  0.77924961    -0.93200
O1033       O  0.65557360  0.79806189  0.81909912    -0.92000
C1034       C  0.72839038  0.81057780  0.86970996     1.17000
H1035       H  0.71910647  0.77120260  0.77219124     0.33000
H1036       H  0.65856454  0.76227223  0.85248721     0.43800
H1037       H  0.74884186  0.76718642  0.87950512     0.37400
H1038       H  0.71641007  0.70432173  0.82936173     0.33800
H1039       H  0.63419639  0.77336761  0.78207812     0.25600
H1040       H  0.66763965  0.69364180  0.87774976     0.31600
H1041       H  0.74287777  0.70112025  0.90605425     0.37500
H1042       H  0.69669413  0.80800121  0.79188620     0.31900
H1043       H  0.76226890  0.80522108  0.79304643     0.30800
H1044       H  0.78507275  0.79129233  0.83427188     0.32500
H1045       H  0.78324397  0.74492159  0.87863939     0.31500
H1046       H  0.65731472  0.79805648  0.83911313     0.35500
H1047       H  0.69216232  0.79345158  0.92535755     0.28200
H1048       H  0.73345201  0.70565837  0.74842389     0.32400
H1049       H  0.77115794  0.69761507  0.86507987     0.35300
H1050       H  0.74240355  0.79806449  0.77509188     0.27900
H1051       H  0.67473374  0.79857396  0.90254570     0.40700
H1052       H  0.63310182  0.72472866  0.82464510     0.30800
H1053       H  0.63695837  0.75360858  0.79501428     0.38400
H1054       H  0.78615530  0.73708116  0.84915407     0.30300
H1055       H  0.69100758  0.68967476  0.86451686     0.30300
H1056       H  0.74232592  0.69860147  0.77669274     0.30600
Zr1057     Zr  0.85476413  0.73625152  0.15816997     2.17500
O1058       O  0.87681827  0.71403155  0.13176213    -0.51800
O1059       O  0.83298930  0.74304321  0.11708279    -0.75000
O1060       O  0.83757401  0.70549867  0.15536004    -0.81700
O1061       O  0.90424699  0.76947399  0.15519816    -0.83500
O1062       O  0.81409809  0.70159219  0.19111076    -0.79100
O1063       O  0.88927214  0.74392110  0.13495409    -0.90700
O1064       O  0.80939639  0.76693638  0.12607346    -0.76700
O1065       O  0.81772843  0.74338874  0.17236998    -0.86200
O1066       O  0.85223271  0.76936099  0.15751357    -0.85900
O1067       O  0.85257537  0.72302373  0.20305088    -0.72600
O1068       O  0.88245742  0.74729086  0.18988837    -0.84800
Zr1069     Zr  0.83850138  0.77540009  0.24880620     2.26400
Zr1070     Zr  0.81529110  0.73055914  0.21710235     2.06300
Zr1071     Zr  0.87906867  0.78038033  0.18986141     2.10000
Zr1072     Zr  0.81546705  0.77658303  0.17243995     1.78800
O1073       O  0.91806722  0.78550599  0.20223561    -0.93600
O1074       O  0.77511577  0.77287018  0.16707360    -0.41400
O1075       O  0.84219306  0.78858211  0.20420982    -0.78000
O1076       O  0.81115738  0.76389829  0.21683366    -0.96700
O1077       O  0.84179304  0.74225716  0.24951536    -0.90000
O1078       O  0.87565560  0.76832739  0.23476440    -0.92900
C1079       C  0.81747847  0.75453056  0.11015899     1.00900
C1080       C  0.90474721  0.75612367  0.13796676     1.13800
C1081       C  0.82376386  0.69572490  0.16936695     1.04600
O1082       O  0.77672674  0.72523373  0.20300538    -0.95000
O1083       O  0.79079782  0.74022936  0.25330507    -0.90800
O1084       O  0.80445133  0.76663489  0.27299647    -0.83900
C1085       C  0.78961277  0.75383845  0.27009688     1.11200
O1086       O  0.90451360  0.71048435  0.22226978    -0.97000
Zr1087     Zr  0.87889035  0.73544009  0.23513433     1.88900
O1088       O  0.85688939  0.76735754  0.29124309    -0.73600
O1089       O  0.81430677  0.70512402  0.24977749    -0.52900
O1090       O  0.87067699  0.70699520  0.26010177    -0.97600
O1091       O  0.91857182  0.74279158  0.24046176    -0.54800
O1092       O  0.88204906  0.74445818  0.28253970    -0.74200
C1093       C  0.87233384  0.75599936  0.29861474     0.98200
O1094       O  0.81903512  0.80220022  0.26814312    -0.63000
O1095       O  0.87913778  0.80639053  0.15814496    -0.57800
O1096       O  0.85893594  0.80478842  0.25493007    -0.94500
O1097       O  0.88262378  0.80730574  0.21899701    -0.92900
O1098       O  0.82495412  0.80444992  0.14673361    -0.93200
O1099       O  0.79296413  0.80273302  0.18823735    -0.92000
C1100       C  0.87429829  0.81331411  0.24138257     1.17000
H1101       H  0.85516848  0.77423025  0.13955104     0.33000
H1102       H  0.79623579  0.76748960  0.22222032     0.43800
H1103       H  0.88654378  0.77399641  0.24673315     0.37400
H1104       H  0.85494306  0.70975447  0.20256192     0.33800
H1105       H  0.77161788  0.77832461  0.14910271     0.25600
H1106       H  0.79982127  0.69880278  0.24643515     0.31600
H1107       H  0.85906124  0.71059461  0.27348947     0.37500
H1108       H  0.81844486  0.80249983  0.12844987     0.31900
H1109       H  0.89278224  0.81356188  0.16277807     0.30800
H1110       H  0.92328928  0.79547816  0.18990444     0.32500
H1111       H  0.91908707  0.75399886  0.25217687     0.31500
H1112       H  0.79408000  0.80227204  0.20830072     0.35500
H1113       H  0.80333905  0.80128662  0.26177338     0.28200
H1114       H  0.86679881  0.70952006  0.11712944     0.32400
H1115       H  0.91172371  0.70643617  0.23939386     0.35300
H1116       H  0.88250927  0.80080935  0.14019030     0.27900
H1117       H  0.81835031  0.79985406  0.28795213     0.40700
H1118       H  0.77060130  0.71644185  0.21658339     0.30800
H1119       H  0.77287532  0.75931759  0.16459491     0.38400
H1120       H  0.92339492  0.74724230  0.22234810     0.30300
H1121       H  0.82574219  0.69616502  0.24331454     0.30300
H1122       H  0.87920163  0.70317088  0.14378192     0.30600
Zr1123     Zr  0.85702667  0.51777781  0.12840458     2.17500
O1124       O  0.87338372  0.53557299  0.16573990    -0.51800
O1125       O  0.83291859  0.51116815  0.16759200    -0.75000
O1126       O  0.84441856  0.55024485  0.12846593    -0.81700
O1127       O  0.90562230  0.48284978  0.13009359    -0.83500
O1128       O  0.81972429  0.55457814  0.09413116    -0.79100
O1129       O  0.89364740  0.51035217  0.14751163    -0.90700
O1130       O  0.80692586  0.48955970  0.15623091    -0.76700
O1131       O  0.82021434  0.51333929  0.11115620    -0.86200
O1132       O  0.85077595  0.48494503  0.12840737    -0.85900
O1133       O  0.85830302  0.53159619  0.08371018    -0.72600
O1134       O  0.88497229  0.50478370  0.09860066    -0.84800
Zr1135     Zr  0.84220479  0.48045517  0.03568673     2.26400
Zr1136     Zr  0.82135772  0.52643262  0.06647866     2.06300
Zr1137     Zr  0.87801656  0.47203786  0.09803166     2.10000
Zr1138     Zr  0.81431910  0.48050541  0.10985787     1.78800
O1139       O  0.91398955  0.45625736  0.10219023    -0.93600
O1140       O  0.77479233  0.48905300  0.10986644    -0.41400
O1141       O  0.84152089  0.46654146  0.08009913    -0.78000
O1142       O  0.81411026  0.49355062  0.06529576    -0.96700
O1143       O  0.84855380  0.51325488  0.03642274    -0.90000
O1144       O  0.87900279  0.48495707  0.05326293    -0.92900
C1145       C  0.81589119  0.50088578  0.17311396     1.00900
C1146       C  0.90806461  0.49714754  0.14537768     1.13800
C1147       C  0.83053858  0.56038765  0.11507028     1.04600
O1148       O  0.78201478  0.53349439  0.07458058    -0.95000
O1149       O  0.80006524  0.51949437  0.02614851    -0.90800
O1150       O  0.81191788  0.49226553  0.00744758    -0.83900
C1151       C  0.79885545  0.50647853  0.00833665     1.11200
O1152       O  0.91116313  0.54079500  0.07156176    -0.97000
Zr1153     Zr  0.88521925  0.51755774  0.05374321     1.88900
O1154       O  0.86250256  0.48824626  0.99431691    -0.73600
O1155       O  0.82650774  0.55244463  0.03541521    -0.52900
O1156       O  0.88302521  0.54694517  0.02921826    -0.97600
O1157       O  0.92430690  0.50775632  0.05092373    -0.54800
O1158       O  0.88879651  0.50955398  0.00576645    -0.74200
C1159       C  0.87885963  0.49913281  0.98830195     0.98200
O1160       O  0.81845548  0.45551176  0.01804112    -0.63000
O1161       O  0.86541762  0.44737548  0.12828010    -0.57800
O1162       O  0.86247480  0.45114028  0.02841454    -0.94500
O1163       O  0.88533017  0.44779054  0.06495868    -0.92900
O1164       O  0.81713230  0.45183268  0.13593832    -0.93200
O1165       O  0.78882876  0.45657546  0.09329988    -0.92000
C1166       C  0.87774267  0.44245407  0.04184956     1.17000
H1167       H  0.85214392  0.47984093  0.14648408     0.33000
H1168       H  0.79934762  0.49117310  0.05804656     0.43800
H1169       H  0.89020811  0.47911228  0.04195735     0.37400
H1170       H  0.86188286  0.54466848  0.08430550     0.33800
H1171       H  0.76919183  0.48557886  0.12810781     0.25600
H1172       H  0.81252156  0.55978581  0.03693927     0.31600
H1173       H  0.87287824  0.54447605  0.01371637     0.37500
H1174       H  0.80382932  0.45188851  0.14797534     0.31900
H1175       H  0.86988493  0.43568966  0.11904855     0.30800
H1176       H  0.91110793  0.44532385  0.11389739     0.32500
H1177       H  0.92741340  0.50619636  0.03128819     0.31500
H1178       H  0.79484982  0.45306207  0.07525531     0.35500
H1179       H  0.82042593  0.44505875  0.03090400     0.28200
H1180       H  0.86066933  0.54152851  0.17533394     0.32400
H1181       H  0.92102343  0.54420486  0.05615979     0.35300
H1182       H  0.87545199  0.44823979  0.14424633     0.27900
H1183       H  0.80284968  0.45962760  0.02130942     0.40700
H1184       H  0.77910067  0.54489677  0.06387948     0.30800
H1185       H  0.77472362  0.50282991  0.10989526     0.38400
H1186       H  0.92458674  0.49496695  0.05836029     0.30300
H1187       H  0.83810261  0.56034499  0.04402302     0.30300
H1188       H  0.88165358  0.54594663  0.15711543     0.30600
Zr1189     Zr  0.95366948  0.52597815  0.65422649     2.17500
O1190       O  0.93225410  0.55044107  0.63175023    -0.51800
O1191       O  0.97491722  0.51923981  0.61277564    -0.75000
O1192       O  0.97417097  0.55531072  0.65200056    -0.81700
O1193       O  0.90499351  0.49242071  0.64491188    -0.83500
O1194       O  0.99837385  0.55718761  0.68739694    -0.79100
O1195       O  0.92013288  0.51910070  0.62834814    -0.90700
O1196       O  0.99813793  0.49506460  0.62137547    -0.76700
O1197       O  0.99020956  0.51755761  0.66879259    -0.86200
O1198       O  0.95531395  0.49288607  0.65179256    -0.85900
O1199       O  0.95628209  0.53824745  0.69966478    -0.72600
O1200       O  0.92492557  0.51490524  0.68453786    -0.84800
Zr1201     Zr  0.96718832  0.48462593  0.74283335     2.26400
Zr1202     Zr  0.99288098  0.52922752  0.71418573     2.06300
Zr1203     Zr  0.92745276  0.48176832  0.68248884     2.10000
Zr1204     Zr  0.99157027  0.48445177  0.66713424     1.78800
O1205       O  0.88740915  0.47739120  0.68951657    -0.93600
O1206       O  0.03197928  0.48836532  0.66297830    -0.41400
O1207       O  0.96373406  0.47244882  0.69748425    -0.78000
O1208       O  0.99571049  0.49593490  0.71236392    -0.96700
O1209       O  0.96528394  0.51777493  0.74516784    -0.90000
O1210       O  0.93062082  0.49303573  0.72790130    -0.92900
C1211       C  0.99023389  0.50762141  0.60563976     1.00900
C1212       C  0.90521745  0.50623669  0.62849922     1.13800
C1213       C  0.98944694  0.56373441  0.66570219     1.04600
O1214       O  0.03214280  0.53477283  0.70355770    -0.95000
O1215       O  0.01575735  0.51819334  0.75118801    -0.90800
O1216       O  0.99913932  0.49313782  0.77122805    -0.83900
C1217       C  0.01507389  0.50506377  0.76878138     1.11200
O1218       O  0.90594760  0.55184653  0.71421329    -0.97000
Zr1219     Zr  0.92875596  0.52596911  0.73031685     1.88900
O1220       O  0.94690976  0.49110919  0.78475917    -0.73600
O1221       O  0.99110335  0.55512359  0.74612386    -0.52900
O1222       O  0.93781601  0.55347729  0.75718566    -0.97600
O1223       O  0.88875855  0.52101881  0.73769917    -0.54800
O1224       O  0.92373889  0.51556525  0.77695053    -0.74200
C1225       C  0.93180596  0.50278292  0.79232243     0.98200
O1226       O  0.99038097  0.45847609  0.75753944    -0.63000
O1227       O  0.93015629  0.45548771  0.65130648    -0.57800
O1228       O  0.94500256  0.45604562  0.74727549    -0.94500
O1229       O  0.92135032  0.45500438  0.71121329    -0.92900
O1230       O  0.98335049  0.45780630  0.63814967    -0.93200
O1231       O  0.01223772  0.45707170  0.68195202    -0.92000
C1232       C  0.92940919  0.44820833  0.73323220     1.17000
H1233       H  0.95254819  0.48843283  0.63353802     0.33000
H1234       H  0.01031008  0.49183202  0.71835640     0.43800
H1235       H  0.91922184  0.48749476  0.73926440     0.37400
H1236       H  0.95487344  0.55162089  0.69957709     0.33800
H1237       H  0.03624441  0.48053802  0.64720905     0.25600
H1238       H  0.98885651  0.54926728  0.76411419     0.31600
H1239       H  0.94542609  0.54865066  0.77359486     0.37500
H1240       H  0.99609896  0.45714673  0.62529196     0.31900
H1241       H  0.93964497  0.44629321  0.66086959     0.30800
H1242       H  0.88377667  0.46567683  0.67983539     0.32500
H1243       H  0.88754060  0.50873527  0.74665175     0.31500
H1244       H  0.00479799  0.45324472  0.69903025     0.35500
H1245       H  0.98569523  0.44775502  0.74622335     0.28200
H1246       H  0.94159339  0.55450487  0.61621201     0.32400
H1247       H  0.89904607  0.55731997  0.73069670     0.35300
H1248       H  0.91499860  0.44988770  0.65131576     0.27900
H1249       H  0.00564504  0.46132129  0.75082168     0.40700
H1250       H  0.03771674  0.52265773  0.69674695     0.30800
H1251       H  0.03397605  0.50129236  0.65648504     0.38400
H1252       H  0.88249607  0.51896367  0.71930937     0.30300
H1253       H  0.00660077  0.56001951  0.74674162     0.30300
H1254       H  0.93216617  0.56112469  0.64449558     0.30600
Zr1255     Zr  0.95533590  0.73779580  0.62865277     2.17500
O1256       O  0.93312741  0.71455663  0.65274334    -0.51800
O1257       O  0.97786809  0.74406417  0.66907044    -0.75000
O1258       O  0.97384732  0.70768126  0.63016606    -0.81700
O1259       O  0.90820148  0.77253488  0.63939015    -0.83500
O1260       O  0.99682401  0.70474061  0.59382718    -0.79100
O1261       O  0.92270981  0.74560991  0.65582317    -0.90700
O1262       O  0.00200486  0.76756557  0.65960084    -0.76700
O1263       O  0.99199444  0.74459724  0.61257474    -0.86200
O1264       O  0.95901834  0.77076319  0.63074165    -0.85900
O1265       O  0.95604457  0.72535410  0.58316074    -0.72600
O1266       O  0.92642175  0.74974387  0.59962909    -0.84800
Zr1267     Zr  0.96802611  0.77892647  0.53932181     2.26400
Zr1268     Zr  0.99263373  0.73307180  0.56695797     2.06300
Zr1269     Zr  0.93065127  0.78276131  0.60150901     2.10000
Zr1270     Zr  0.99532234  0.77760262  0.61364807     1.78800
O1271       O  0.89085522  0.78825663  0.59417749    -0.93600
O1272       O  0.03480753  0.76888495  0.61274482    -0.41400
O1273       O  0.96695624  0.79086896  0.58502005    -0.78000
O1274       O  0.99691444  0.76634138  0.56825780    -0.96700
O1275       O  0.96474598  0.74574987  0.53732689    -0.90000
O1276       O  0.93170559  0.77150809  0.55590351    -0.92900
C1277       C  0.99375561  0.75530309  0.67556667     1.00900
C1278       C  0.90821867  0.75880456  0.65593810     1.13800
C1279       C  0.98799527  0.69847040  0.61583971     1.04600
O1280       O  0.03235523  0.72703299  0.57399844    -0.95000
O1281       O  0.01488313  0.74342401  0.52899688    -0.90800
O1282       O  0.99991440  0.76995934  0.51103873    -0.83900
C1283       C  0.01476330  0.75701143  0.51218249     1.11200
O1284       O  0.90491739  0.71272480  0.56824797    -0.97000
Zr1285     Zr  0.92836608  0.73865333  0.55372479     1.88900
O1286       O  0.94766955  0.77207633  0.49759404    -0.73600
O1287       O  0.98959689  0.70737924  0.53479071    -0.52900
O1288       O  0.93358270  0.71152511  0.52456216    -0.97600
O1289       O  0.88873708  0.74678454  0.55165269    -0.54800
O1290       O  0.92370787  0.74846521  0.50691859    -0.74200
C1291       C  0.93223717  0.76052765  0.49070465     0.98200
O1292       O  0.98911501  0.80613267  0.52410189    -0.63000
O1293       O  0.93377200  0.80890260  0.63292005    -0.57800
O1294       O  0.94536130  0.80748215  0.53469889    -0.94500
O1295       O  0.92527495  0.80998238  0.57367434    -0.92900
O1296       O  0.99339843  0.80482081  0.64307481    -0.93200
O1297       O  0.01785896  0.80396208  0.59874818    -0.92000
C1298       C  0.93124385  0.81598270  0.55026730     1.17000
H1299       H  0.95711795  0.77529984  0.64911572     0.33000
H1300       H  0.01152703  0.76994446  0.56169501     0.43800
H1301       H  0.92021273  0.77735070  0.54508040     0.37400
H1302       H  0.95389803  0.71204552  0.58337787     0.33800
H1303       H  0.04232210  0.77803726  0.62473592     0.25600
H1304       H  0.98747855  0.71337097  0.51687073     0.31600
H1305       H  0.94094042  0.70211883  0.53620780     0.37500
H1306       H  0.97746830  0.80859850  0.64275948     0.31900
H1307       H  0.91915667  0.81536051  0.63169059     0.30800
H1308       H  0.88665829  0.79779601  0.60781549     0.32500
H1309       H  0.88782453  0.75765644  0.53938205     0.31500
H1310       H  0.02364352  0.80034918  0.58062719     0.35500
H1311       H  0.98657435  0.81570331  0.53828869     0.28200
H1312       H  0.94213029  0.71109516  0.66884622     0.32400
H1313       H  0.89454696  0.71033617  0.55292961     0.35300
H1314       H  0.93377949  0.80328866  0.65127207     0.27900
H1315       H  0.00511045  0.80284461  0.52636185     0.40700
H1316       H  0.03453929  0.72805663  0.59388239     0.30800
H1317       H  0.03557345  0.75705157  0.62296681     0.38400
H1318       H  0.88525235  0.75185976  0.56989336     0.30300
H1319       H  0.00488327  0.70204912  0.53396400     0.30300
H1320       H  0.93291596  0.70331704  0.64106096     0.30600
Zr1321     Zr  0.71541206  0.52896351  0.49507324     2.17500
O1322       O  0.73526257  0.55193524  0.52259290    -0.51800
O1323       O  0.69530443  0.52073844  0.53634953    -0.75000
O1324       O  0.69563039  0.55867445  0.49935259    -0.81700
O1325       O  0.76599201  0.49643453  0.49748157    -0.83500
O1326       O  0.66968293  0.56000051  0.46572494    -0.79100
O1327       O  0.75144479  0.52269434  0.51630437    -0.90700
O1328       O  0.67081001  0.49753568  0.52719867    -0.76700
O1329       O  0.67858267  0.52146274  0.48022006    -0.86200
O1330       O  0.71318983  0.49574973  0.49542253    -0.85900
O1331       O  0.71266013  0.54260980  0.45058617    -0.72600
O1332       O  0.74347944  0.51799705  0.46401958    -0.84800
Zr1333     Zr  0.70101299  0.49043221  0.40390586     2.26400
Zr1334     Zr  0.67598619  0.53408570  0.43535540     2.06300
Zr1335     Zr  0.74049830  0.48479187  0.46349574     2.10000
Zr1336     Zr  0.67650153  0.48839013  0.48013723     1.78800
O1337       O  0.77890552  0.47885321  0.44912853    -0.93600
O1338       O  0.63617817  0.49296757  0.48398046    -0.41400
O1339       O  0.70371703  0.47676423  0.44840603    -0.78000
O1340       O  0.67257289  0.50088451  0.43535861    -0.96700
O1341       O  0.70364123  0.52348946  0.40369674    -0.90000
O1342       O  0.73788826  0.49766220  0.41892523    -0.92900
C1343       C  0.67987497  0.50931036  0.54346657     1.00900
C1344       C  0.76686464  0.51034003  0.51381899     1.13800
C1345       C  0.67915429  0.56650225  0.48708617     1.04600
O1346       O  0.63595674  0.53744759  0.44366963    -0.95000
O1347       O  0.65371375  0.52631555  0.39604219    -0.90800
O1348       O  0.66621654  0.49826292  0.38080998    -0.83900
C1349       C  0.65234366  0.51193038  0.38072741     1.11200
O1350       O  0.76153747  0.55756274  0.43577375    -0.97000
Zr1351     Zr  0.74024489  0.53080361  0.41951005     1.88900
O1352       O  0.72491524  0.49668241  0.36429991    -0.73600
O1353       O  0.67808440  0.56156243  0.40653284    -0.52900
O1354       O  0.73216321  0.55791884  0.39148388    -0.97600
O1355       O  0.78072912  0.52625871  0.41837100    -0.54800
O1356       O  0.74816712  0.52083609  0.37355906    -0.74200
C1357       C  0.74072007  0.50803180  0.35780502     0.98200
O1358       O  0.68180937  0.47075177  0.37084331    -0.63000
O1359       O  0.74136997  0.46040789  0.49778252    -0.57800
O1360       O  0.71460442  0.45835245  0.40565011    -0.94500
O1361       O  0.74136777  0.45571294  0.43798348    -0.92900
O1362       O  0.68337409  0.46067400  0.50726169    -0.93200
O1363       O  0.65504111  0.46180442  0.46377623    -0.92000
C1364       C  0.72963727  0.44898958  0.41839495     1.17000
H1365       H  0.71606294  0.49080344  0.51332348     0.33000
H1366       H  0.65775086  0.49722911  0.42947820     0.43800
H1367       H  0.74924103  0.49207600  0.40751239     0.37400
H1368       H  0.71416736  0.55599736  0.45157672     0.33800
H1369       H  0.63192505  0.48646899  0.50094573     0.25600
H1370       H  0.66289376  0.56707803  0.40743154     0.31600
H1371       H  0.72165152  0.55340073  0.37738038     0.37500
H1372       H  0.66935880  0.45878279  0.51768317     0.31900
H1373       H  0.72712074  0.45357832  0.49524674     0.30800
H1374       H  0.78543837  0.47115056  0.46378589     0.32500
H1375       H  0.78319177  0.51563946  0.40587081     0.31500
H1376       H  0.65999421  0.46008120  0.44472502     0.35500
H1377       H  0.69350172  0.46681490  0.35776705     0.28200
H1378       H  0.72486244  0.55539334  0.53746376     0.32400
H1379       H  0.76970413  0.56234316  0.41971508     0.35300
H1380       H  0.75305156  0.45162397  0.49145273     0.27900
H1381       H  0.67740755  0.45929436  0.38063571     0.40700
H1382       H  0.63424397  0.53620201  0.46359203     0.30800
H1383       H  0.63438360  0.50633610  0.48834201     0.38400
H1384       H  0.78451008  0.52128816  0.43655192     0.30300
H1385       H  0.68770249  0.57044319  0.41657188     0.30300
H1386       H  0.73662505  0.56322204  0.51119539     0.30600
Zr1387     Zr  0.71554835  0.23543648  0.28657994     2.17500
O1388       O  0.73706474  0.21339368  0.25923866    -0.51800
O1389       O  0.69491830  0.24495998  0.24651278    -0.75000
O1390       O  0.69582180  0.20588839  0.27922560    -0.81700
O1391       O  0.76570105  0.26831364  0.28683829    -0.83500
O1392       O  0.66897958  0.20395675  0.31183435    -0.79100
O1393       O  0.75023682  0.24390409  0.26411186    -0.90700
O1394       O  0.66902001  0.26630686  0.25902008    -0.76700
O1395       O  0.67875294  0.24295170  0.30151501    -0.86200
O1396       O  0.71394214  0.26860884  0.28967379    -0.85900
O1397       O  0.71183764  0.21978577  0.32940716    -0.72600
O1398       O  0.74354454  0.24453097  0.31897741    -0.84800
Zr1399     Zr  0.70108054  0.26981218  0.38189926     2.26400
Zr1400     Zr  0.67535092  0.22836068  0.34485054     2.06300
Zr1401     Zr  0.74096702  0.27765757  0.32306531     2.10000
Zr1402     Zr  0.67739858  0.27591545  0.30517727     1.78800
O1403       O  0.77858442  0.28150434  0.34137323    -0.93600
O1404       O  0.63671670  0.27316644  0.30359224    -0.41400
O1405       O  0.70427168  0.28541937  0.33872504    -0.78000
O1406       O  0.67288529  0.26162466  0.34856686    -0.96700
O1407       O  0.70271039  0.23675538  0.37819552    -0.90000
O1408       O  0.73781338  0.26264394  0.36613777    -0.92900
C1409       C  0.67800371  0.25538646  0.24146873     1.00900
C1410       C  0.76581854  0.25591072  0.26806203     1.13800
C1411       C  0.67896585  0.19787417  0.29052864     1.04600
O1412       O  0.63606741  0.22153088  0.33604057    -0.95000
O1413       O  0.65039623  0.23701924  0.38095420    -0.90800
O1414       O  0.66551270  0.26167798  0.40352515    -0.83900
C1415       C  0.64991522  0.24968601  0.39925756     1.11200
O1416       O  0.75707565  0.20170572  0.34343874    -0.97000
Zr1417     Zr  0.73921657  0.22954534  0.36191900     1.88900
O1418       O  0.72489056  0.26096067  0.42081277    -0.73600
O1419       O  0.67848163  0.20081895  0.37333911    -0.52900
O1420       O  0.72912450  0.20289275  0.38991744    -0.97600
O1421       O  0.77994551  0.23196204  0.36229344    -0.54800
O1422       O  0.74780254  0.23733055  0.40833475    -0.74200
C1423       C  0.74071074  0.24920219  0.42571777     0.98200
O1424       O  0.68358501  0.28804394  0.41805735    -0.63000
O1425       O  0.74536635  0.30351884  0.29150241    -0.57800
O1426       O  0.71486113  0.30198988  0.38328792    -0.94500
O1427       O  0.74019950  0.30616139  0.34964666    -0.92900
O1428       O  0.68732657  0.30313534  0.27831671    -0.93200
O1429       O  0.65762931  0.30366038  0.32056841    -0.92000
C1430       C  0.72916836  0.31204295  0.37032940     1.17000
H1431       H  0.71708211  0.27432447  0.27232853     0.33000
H1432       H  0.65815485  0.26563929  0.35422621     0.43800
H1433       H  0.74924233  0.26743535  0.37815048     0.37400
H1434       H  0.71294311  0.20643200  0.32721800     0.33800
H1435       H  0.63203107  0.28144706  0.28856698     0.25600
H1436       H  0.67870882  0.20565098  0.39219944     0.31600
H1437       H  0.74229003  0.20068635  0.40171542     0.37500
H1438       H  0.67535877  0.30409705  0.26446185     0.31900
H1439       H  0.73438585  0.31300624  0.29750558     0.30800
H1440       H  0.78417686  0.29317926  0.33315156     0.32500
H1441       H  0.78486864  0.22369194  0.37720713     0.31500
H1442       H  0.66098518  0.30445079  0.34024191     0.35500
H1443       H  0.69606003  0.29250629  0.42962023     0.28200
H1444       H  0.72720997  0.20982403  0.24390308     0.32400
H1445       H  0.76457648  0.19557490  0.35896416     0.35300
H1446       H  0.76016597  0.30896297  0.29592013     0.27900
H1447       H  0.67754869  0.29935352  0.40922049     0.40700
H1448       H  0.63249030  0.22854296  0.31929939     0.30800
H1449       H  0.63393124  0.26044995  0.29658753     0.38400
H1450       H  0.78305248  0.24469128  0.36904211     0.30300
H1451       H  0.66373418  0.19462020  0.37163676     0.30300
H1452       H  0.73844432  0.20203970  0.27048850     0.30600
Zr1453     Zr  0.58995744  0.52981787  0.78826860     2.17500
O1454       O  0.56856321  0.55364444  0.76434917    -0.51800
O1455       O  0.60902609  0.52132397  0.74619243    -0.75000
O1456       O  0.61020205  0.55929737  0.78312941    -0.81700
O1457       O  0.53921587  0.49763213  0.78741124    -0.83500
O1458       O  0.63537112  0.56137550  0.81766363    -0.79100
O1459       O  0.55424229  0.52302823  0.76675956    -0.90700
O1460       O  0.63316025  0.49764337  0.75420352    -0.76700
O1461       O  0.62701122  0.52134128  0.80082292    -0.86200
O1462       O  0.59101771  0.49660260  0.78805466    -0.85900
O1463       O  0.59475478  0.54318793  0.83271417    -0.72600
O1464       O  0.56263395  0.51969280  0.82097411    -0.84800
Zr1465     Zr  0.60706853  0.49103619  0.87854262     2.26400
Zr1466     Zr  0.63178361  0.53394879  0.84546374     2.06300
Zr1467     Zr  0.56467852  0.48642042  0.82152485     2.10000
Zr1468     Zr  0.62791799  0.48820134  0.80099037     1.78800
O1469       O  0.52736693  0.48208072  0.84054740    -0.93600
O1470       O  0.66840669  0.49170682  0.79744268    -0.41400
O1471       O  0.60173968  0.47747007  0.83430903    -0.78000
O1472       O  0.63420828  0.50069771  0.84527184    -0.96700
O1473       O  0.60530742  0.52414835  0.87899954    -0.90000
O1474       O  0.56975283  0.49903576  0.86600874    -0.92900
C1475       C  0.62412381  0.50971971  0.73847974     1.00900
C1476       C  0.53873220  0.51084133  0.76996789     1.13800
C1477       C  0.62560325  0.56780472  0.79651025     1.04600
O1478       O  0.67061097  0.53871714  0.83192026    -0.95000
O1479       O  0.65694272  0.52432912  0.88085991    -0.90800
O1480       O  0.64277638  0.49824737  0.90036247    -0.83900
C1481       C  0.65800821  0.51075395  0.89761408     1.11200
O1482       O  0.54674783  0.55963012  0.85262206    -0.97000
Zr1483     Zr  0.56825738  0.53215393  0.86553825     1.88900
O1484       O  0.58562719  0.49760534  0.91976074    -0.73600
O1485       O  0.63261829  0.55949833  0.87802533    -0.52900
O1486       O  0.57802969  0.55959510  0.89221709    -0.97600
O1487       O  0.52797844  0.52704474  0.86950959    -0.54800
O1488       O  0.56355624  0.52282935  0.91234245    -0.74200
C1489       C  0.57116443  0.50977866  0.92744143     0.98200
O1490       O  0.62785211  0.46954875  0.90743425    -0.63000
O1491       O  0.55880991  0.46225626  0.78744839    -0.57800
O1492       O  0.59116795  0.45983120  0.87863997    -0.94500
O1493       O  0.56530118  0.45680557  0.84520275    -0.92900
O1494       O  0.61707978  0.46111001  0.77421366    -0.93200
O1495       O  0.64836373  0.46032660  0.81434893    -0.92000
C1496       C  0.57648804  0.45041805  0.86540480     1.17000
H1497       H  0.58724340  0.49166933  0.77035088     0.33000
H1498       H  0.64908326  0.49660285  0.85015210     0.43800
H1499       H  0.55886190  0.49369940  0.87821214     0.37400
H1500       H  0.59345622  0.55659317  0.83205102     0.33800
H1501       H  0.67251647  0.48505665  0.78051565     0.25600
H1502       H  0.64722177  0.56566720  0.87487507     0.31600
H1503       H  0.56645723  0.56035912  0.90660217     0.37500
H1504       H  0.63052930  0.45797456  0.76333673     0.31900
H1505       H  0.57098716  0.45314990  0.79054739     0.30800
H1506       H  0.52101362  0.47143946  0.83031902     0.32500
H1507       H  0.52636347  0.51602973  0.88140049     0.31500
H1508       H  0.65343763  0.46285961  0.83315211     0.35500
H1509       H  0.61689808  0.46476284  0.92082363     0.28200
H1510       H  0.57822083  0.55802087  0.74929016     0.32400
H1511       H  0.53727183  0.56269400  0.86854591     0.35300
H1512       H  0.54500579  0.45573864  0.79326189     0.27900
H1513       H  0.63166636  0.45875099  0.89577528     0.40700
H1514       H  0.67756055  0.52621917  0.83275376     0.30800
H1515       H  0.67068635  0.50501862  0.79311124     0.38400
H1516       H  0.52327893  0.52260511  0.85132374     0.30300
H1517       H  0.62136072  0.56848414  0.87129760     0.30300
H1518       H  0.56746570  0.56430250  0.77707888     0.30600
Zr1519     Zr  0.58702575  0.23616046  0.99966798     2.17500
O1520       O  0.56482769  0.21219022  0.02211999    -0.51800
O1521       O  0.60348125  0.24558271  0.04249043    -0.75000
O1522       O  0.60821915  0.20691026  0.00654883    -0.81700
O1523       O  0.53806691  0.27087103  0.99845146    -0.83500
O1524       O  0.63619983  0.20641751  0.97532752    -0.79100
O1525       O  0.55027540  0.24431610  0.01862837    -0.90700
O1526       O  0.62986050  0.26743362  0.03311020    -0.76700
O1527       O  0.62455972  0.24309561  0.98653649    -0.86200
O1528       O  0.59042272  0.26937489  0.99904413    -0.85900
O1529       O  0.59163027  0.22191940  0.95579051    -0.72600
O1530       O  0.56084262  0.24749749  0.96678014    -0.84800
Zr1531     Zr  0.60634328  0.27338629  0.90778902     2.26400
Zr1532     Zr  0.62879267  0.23008161  0.94210106     2.06300
Zr1533     Zr  0.56509680  0.28062397  0.96523809     2.10000
Zr1534     Zr  0.62771918  0.27603325  0.98560219     1.78800
O1535       O  0.52771049  0.28727214  0.94799775    -0.93600
O1536       O  0.66740086  0.26942031  0.99218841    -0.41400
O1537       O  0.60255007  0.28775754  0.95173876    -0.78000
O1538       O  0.63319628  0.26320013  0.94130055    -0.96700
O1539       O  0.60280036  0.24033993  0.90847187    -0.90000
O1540       O  0.56887284  0.26688655  0.92130973    -0.92900
C1541       C  0.61925578  0.25670594  0.04947322     1.00900
C1542       C  0.53569336  0.25733142  0.01510643     1.13800
C1543       C  0.62585496  0.19956096  0.99576215     1.04600
O1544       O  0.66798302  0.22138592  0.94739701    -0.95000
O1545       O  0.65410579  0.23845759  0.90619881    -0.90800
O1546       O  0.64172692  0.26500362  0.88639749    -0.83900
C1547       C  0.65602078  0.25179746  0.88918869     1.11200
O1548       O  0.54253788  0.20744823  0.93705104    -0.97000
Zr1549     Zr  0.56560555  0.23378170  0.92310720     1.88900
O1550       O  0.58377453  0.26652038  0.86725198    -0.73600
O1551       O  0.62320914  0.20268426  0.91366335    -0.52900
O1552       O  0.57470789  0.20628818  0.89617372    -0.97600
O1553       O  0.52530537  0.23910024  0.92095165    -0.54800
O1554       O  0.55961839  0.24309422  0.87692834    -0.74200
C1555       C  0.56779509  0.25529082  0.86088236     0.98200
O1556       O  0.62616303  0.29293664  0.87511820    -0.63000
O1557       O  0.56405071  0.30539086  0.99911764    -0.57800
O1558       O  0.59353121  0.30564617  0.90800834    -0.94500
O1559       O  0.56608349  0.30936515  0.93933463    -0.92900
O1560       O  0.61876828  0.30562293  0.00728289    -0.93200
O1561       O  0.65402657  0.30080965  0.97461127    -0.92000
C1562       C  0.57847647  0.31546342  0.92000144     1.17000
H1563       H  0.58688072  0.27479501  0.01651799     0.33000
H1564       H  0.64829979  0.26671853  0.93636918     0.43800
H1565       H  0.55803510  0.27245212  0.90920508     0.37400
H1566       H  0.59005569  0.20854191  0.95701253     0.33800
H1567       H  0.67117163  0.27510289  0.00995869     0.25600
H1568       H  0.63567439  0.20304945  0.90039184     0.31600
H1569       H  0.56314983  0.20579993  0.88176301     0.37500
H1570       H  0.61882253  0.30302698  0.02702878     0.31900
H1571       H  0.57553186  0.31443330  0.99310861     0.30800
H1572       H  0.52276415  0.29843655  0.95819444     0.32500
H1573       H  0.52363518  0.25112704  0.91141031     0.31500
H1574       H  0.64749709  0.30695072  0.95845620     0.35500
H1575       H  0.61449152  0.29812887  0.86301186     0.28200
H1576       H  0.57366580  0.20830982  0.03816183     0.32400
H1577       H  0.53513893  0.20289779  0.92029745     0.35300
H1578       H  0.54959909  0.31179623  0.99597558     0.27900
H1579       H  0.63196241  0.30371129  0.88554757     0.40700
H1580       H  0.67501816  0.23222230  0.95646200     0.30800
H1581       H  0.66809418  0.25584868  0.99551373     0.38400
H1582       H  0.52082532  0.24187474  0.93991323     0.30300
H1583       H  0.62679189  0.19199664  0.92556369     0.30300
H1584       H  0.56506775  0.20134713  0.00966595     0.30600
Zr1585     Zr  0.09603767  0.02446644  0.78737813     2.17500
O1586       O  0.07823488  0.04724701  0.75766290    -0.51800
O1587       O  0.11857136  0.01620217  0.74809746    -0.75000
O1588       O  0.11543617  0.05468223  0.78628606    -0.81700
O1589       O  0.04732705  0.99011650  0.77792236    -0.83500
O1590       O  0.13753366  0.05660720  0.82366520    -0.79100
O1591       O  0.06131417  0.01778073  0.76315493    -0.90700
O1592       O  0.14207605  0.99258213  0.75853349    -0.76700
O1593       O  0.13174909  0.01754915  0.80619180    -0.86200
O1594       O  0.09950650  0.99130550  0.78647209    -0.85900
O1595       O  0.09477294  0.03757247  0.83234922    -0.72600
O1596       O  0.06616403  0.01239326  0.81478320    -0.84800
Zr1597     Zr  0.10489411  0.98539171  0.87909599     2.26400
Zr1598     Zr  0.13033249  0.02969971  0.85150699     2.06300
Zr1599     Zr  0.07040554  0.97928359  0.81497867     2.10000
Zr1600     Zr  0.13505987  0.98452822  0.80565770     1.78800
O1601       O  0.03139510  0.97247919  0.82542788    -0.93600
O1602       O  0.17470285  0.99266362  0.80431406    -0.41400
O1603       O  0.10610296  0.97209026  0.83421051    -0.78000
O1604       O  0.13510103  0.99658426  0.85099680    -0.96700
O1605       O  0.10083983  0.01827806  0.87967059    -0.90000
O1606       O  0.06918300  0.99172467  0.86001321    -0.92900
C1607       C  0.13399821  0.00450667  0.74186406     1.00900
C1608       C  0.04673209  0.00460685  0.76274453     1.13800
C1609       C  0.12980306  0.06317006  0.80136412     1.04600
O1610       O  0.17002559  0.03732518  0.84876779    -0.95000
O1611       O  0.15089512  0.02096024  0.89162848    -0.90800
O1612       O  0.13647767  0.99378271  0.90753027    -0.83900
C1613       C  0.15068649  0.00717467  0.90807477     1.11200
O1614       O  0.04242224  0.04950202  0.84065289    -0.97000
Zr1615     Zr  0.06535619  0.02469250  0.85979720     1.88900
O1616       O  0.08036589  0.99256200  0.91773226    -0.73600
O1617       O  0.12219561  0.05548724  0.88215334    -0.52900
O1618       O  0.06878435  0.05299582  0.88685045    -0.97600
O1619       O  0.02578850  0.01631778  0.85821717    -0.54800
O1620       O  0.05675911  0.01594997  0.90603839    -0.74200
C1621       C  0.06433129  0.00400629  0.92301052     0.98200
O1622       O  0.12490187  0.96283544  0.90712071    -0.63000
O1623       O  0.07344683  0.95505620  0.78047363    -0.57800
O1624       O  0.08767109  0.95478795  0.87925371    -0.94500
O1625       O  0.06815087  0.95027500  0.84029133    -0.92900
O1626       O  0.12995175  0.95478763  0.78256302    -0.93200
O1627       O  0.15931148  0.95966308  0.82191829    -0.92000
C1628       C  0.07564678  0.94474036  0.86336389     1.17000
H1629       H  0.09802968  0.98638255  0.76828177     0.33000
H1630       H  0.14944588  0.99315068  0.85853791     0.43800
H1631       H  0.05740304  0.98584359  0.87036327     0.37400
H1632       H  0.09286028  0.05093294  0.83164416     0.33800
H1633       H  0.18116516  0.98464247  0.78991737     0.25600
H1634       H  0.11903074  0.04961464  0.89993402     0.31600
H1635       H  0.05436814  0.05410124  0.89669504     0.37500
H1636       H  0.12904421  0.95781308  0.76298078     0.31900
H1637       H  0.08441635  0.94608651  0.78791620     0.30800
H1638       H  0.02693335  0.96293729  0.81193470     0.32500
H1639       H  0.02385673  0.00643097  0.87200040     0.31500
H1640       H  0.15156445  0.95475712  0.83819935     0.35500
H1641       H  0.11392058  0.95839856  0.92074492     0.28200
H1642       H  0.09009405  0.05174486  0.74521495     0.32400
H1643       H  0.03087466  0.05231742  0.85452268     0.35300
H1644       H  0.05892336  0.94841800  0.78118294     0.27900
H1645       H  0.12791023  0.95196809  0.89525055     0.40700
H1646       H  0.17733245  0.02558650  0.84302095     0.30800
H1647       H  0.17513309  0.00535432  0.79652473     0.38400
H1648       H  0.02392325  0.00984298  0.84058363     0.30300
H1649       H  0.13680682  0.06176482  0.88473881     0.30300
H1650       H  0.07453587  0.05802392  0.76941950     0.30600
Zr1651     Zr  0.09089136  0.73093454  0.99826634     2.17500
O1652       O  0.06993529  0.70706931  0.02259492    -0.51800
O1653       O  0.11084622  0.73862160  0.03999889    -0.75000
O1654       O  0.11170015  0.70125335  0.00150812    -0.81700
O1655       O  0.04151240  0.76480068  0.00323912    -0.83500
O1656       O  0.13550457  0.70041713  0.96571158    -0.79100
O1657       O  0.05597102  0.73833399  0.02149030    -0.90700
O1658       O  0.13449036  0.76241510  0.03092577    -0.76700
O1659       O  0.12737095  0.73917908  0.98307627    -0.86200
O1660       O  0.09250090  0.76423158  0.99889879    -0.85900
O1661       O  0.09335070  0.71801167  0.95325727    -0.72600
O1662       O  0.06245895  0.74224539  0.96792878    -0.84800
Zr1663     Zr  0.10425253  0.77035747  0.90708707     2.26400
Zr1664     Zr  0.12973620  0.72725546  0.93778040     2.06300
Zr1665     Zr  0.06519790  0.77549431  0.96709406     2.10000
Zr1666     Zr  0.12890303  0.77222579  0.98384819     1.78800
O1667       O  0.02691949  0.77875576  0.95068902    -0.93600
O1668       O  0.16925316  0.76803069  0.98805978    -0.41400
O1669       O  0.10185961  0.78364046  0.95191310    -0.78000
O1670       O  0.13298367  0.76044159  0.93835579    -0.96700
O1671       O  0.10160053  0.73736899  0.90676104    -0.90000
O1672       O  0.06746548  0.76297749  0.92227279    -0.92900
C1673       C  0.12606915  0.75028567  0.04716243     1.00900
C1674       C  0.04100535  0.75115265  0.01993312     1.13800
C1675       C  0.12722137  0.69335357  0.98733281     1.04600
O1676       O  0.16925379  0.72268121  0.94789601    -0.95000
O1677       O  0.15275087  0.73589823  0.89971032    -0.90800
O1678       O  0.13800762  0.76227077  0.88206039    -0.83900
C1679       C  0.15281848  0.74932068  0.88267848     1.11200
O1680       O  0.04430913  0.70241257  0.93758654    -0.97000
Zr1681     Zr  0.06520485  0.72983618  0.92313439     1.88900
O1682       O  0.08099660  0.76324311  0.86740975    -0.73600
O1683       O  0.12846019  0.70123492  0.90601086    -0.52900
O1684       O  0.07313546  0.70367407  0.89301723    -0.97600
O1685       O  0.02474280  0.73450493  0.92468019    -0.54800
O1686       O  0.05686558  0.73992576  0.87770458    -0.74200
C1687       C  0.06499426  0.75199253  0.86136718     0.98200
O1688       O  0.12194727  0.79115353  0.87423471    -0.63000
O1689       O  0.06136120  0.80122782  0.99917396    -0.57800
O1690       O  0.09056983  0.80224988  0.90932071    -0.94500
O1691       O  0.06437791  0.80490088  0.94257615    -0.92900
O1692       O  0.11823196  0.80028751  0.00856388    -0.93200
O1693       O  0.15086410  0.79942684  0.97114002    -0.92000
C1694       C  0.07601452  0.81154688  0.92292137     1.17000
H1695       H  0.08961576  0.76902807  0.01693568     0.33000
H1696       H  0.14762153  0.76431017  0.93220244     0.43800
H1697       H  0.05607751  0.76856665  0.91095930     0.37400
H1698       H  0.09205764  0.70462296  0.95376399     0.33800
H1699       H  0.17363524  0.77597038  0.00365159     0.25600
H1700       H  0.14226264  0.69404148  0.90977468     0.31600
H1701       H  0.06022640  0.70305728  0.88041410     0.37500
H1702       H  0.12149896  0.79762223  0.02787232     0.31900
H1703       H  0.06461781  0.79586699  0.01725878     0.30800
H1704       H  0.02207133  0.79116223  0.95722080     0.32500
H1705       H  0.02198181  0.74578732  0.91366623     0.31500
H1706       H  0.14176079  0.80573315  0.95708585     0.35500
H1707       H  0.10962505  0.79625825  0.86302319     0.28200
H1708       H  0.07958580  0.70334649  0.03801504     0.32400
H1709       H  0.03512683  0.69867753  0.92173040     0.35300
H1710       H  0.07428768  0.80946091  0.99539766     0.27900
H1711       H  0.12779680  0.80186698  0.88475057     0.40700
H1712       H  0.17498541  0.73531439  0.95193221     0.30800
H1713       H  0.17105517  0.75515502  0.99484376     0.38400
H1714       H  0.02155073  0.73842856  0.94359191     0.30300
H1715       H  0.11614678  0.69322455  0.91267863     0.30300
H1716       H  0.06954217  0.69610658  0.01037790     0.30600
Zr1717     Zr  0.21453942  0.02688340  0.49601910     2.17500
O1718       O  0.23735923  0.05146961  0.51609207    -0.51800
O1719       O  0.19551181  0.01782820  0.53755327    -0.75000
O1720       O  0.19260225  0.05536192  0.50407379    -0.81700
O1721       O  0.26275039  0.99252154  0.49974542    -0.83500
O1722       O  0.16634373  0.05675137  0.47069199    -0.79100
O1723       O  0.24783119  0.01771661  0.52123011    -0.90700
O1724       O  0.17337960  0.99291806  0.52853079    -0.76700
O1725       O  0.17761279  0.01848247  0.48253562    -0.86200
O1726       O  0.21360253  0.99365557  0.49429400    -0.85900
O1727       O  0.20964776  0.04112858  0.45232253    -0.72600
O1728       O  0.24232652  0.01726609  0.46351710    -0.84800
Zr1729     Zr  0.19871255  0.98975521  0.40351604     2.26400
Zr1730     Zr  0.17290090  0.03184092  0.43855805     2.06300
Zr1731     Zr  0.24036958  0.98401030  0.46092361     2.10000
Zr1732     Zr  0.17686212  0.98543165  0.48068908     1.78800
O1733       O  0.27812281  0.98286818  0.44223161    -0.93600
O1734       O  0.13681739  0.98911126  0.48865054    -0.41400
O1735       O  0.20346672  0.97570761  0.44730828    -0.78000
O1736       O  0.17066619  0.99853332  0.43664741    -0.96700
O1737       O  0.20000128  0.02289828  0.40503935    -0.90000
O1738       O  0.23580727  0.99766646  0.41712872    -0.92900
C1739       C  0.18144789  0.00522353  0.54469643     1.00900
C1740       C  0.26265447  0.00485121  0.51860171     0.97800
C1741       C  0.17566152  0.06300635  0.49233328     1.04600
O1742       O  0.13318189  0.03509162  0.44877985    -0.95000
O1743       O  0.14849853  0.02341705  0.40176383    -0.90800
O1744       O  0.16307209  0.99753567  0.38197361    -0.83900
C1745       C  0.14789572  0.01009241  0.38450218     1.11200
O1746       O  0.25901512  0.05685819  0.43681256    -0.97000
Zr1747     Zr  0.23682028  0.03084796  0.41970204     1.88900
O1748       O  0.22127257  0.99762981  0.36349030    -0.73600
O1749       O  0.17280634  0.05977145  0.41060872    -0.52900
O1750       O  0.22744063  0.05953883  0.39593765    -0.97600
O1751       O  0.27709078  0.02620397  0.41469282    -0.54800
O1752       O  0.24170390  0.02361733  0.37213326    -0.74200
C1753       C  0.23511849  0.01046830  0.35647145     0.98200
O1754       O  0.18656926  0.96662801  0.37021032    -0.63000
O1755       O  0.24717233  0.95659255  0.48888854    -0.57800
O1756       O  0.21057992  0.95728266  0.40568985    -0.94500
O1757       O  0.23885965  0.95463997  0.43616355    -0.92900
O1758       O  0.18770162  0.95694198  0.50392773    -0.93200
O1759       O  0.15520083  0.95889422  0.46460044    -0.92000
C1760       C  0.22577385  0.94780915  0.41796466     1.17000
H1761       H  0.21711457  0.98832233  0.51178244     0.33000
H1762       H  0.15589141  0.99444402  0.43138730     0.43800
H1763       H  0.24691807  0.99272466  0.40478430     0.37400
H1764       H  0.21049473  0.05454221  0.45387831     0.33800
H1765       H  0.13329883  0.98019505  0.50336579     0.25600
H1766       H  0.17713857  0.05542332  0.39223412     0.31600
H1767       H  0.23869597  0.06059293  0.38123000     0.37500
H1768       H  0.19833829  0.95076697  0.49136199     0.31900
H1769       H  0.26360632  0.95614001  0.49153614     0.30800
H1770       H  0.28491781  0.97163643  0.45043234     0.32500
H1771       H  0.27871663  0.01552061  0.40210946     0.31500
H1772       H  0.15999638  0.95719181  0.44548543     0.35500
H1773       H  0.17112317  0.96305762  0.37543057     0.28200
H1774       H  0.22971349  0.05492411  0.53324252     0.32400
H1775       H  0.26713740  0.06187858  0.42087764     0.35300
H1776       H  0.24103052  0.95970304  0.50703231     0.27900
H1777       H  0.18498872  0.97338891  0.35281213     0.40700
H1778       H  0.12934314  0.02373307  0.45912066     0.30800
H1779       H  0.13532648  0.00150034  0.49730861     0.38400
H1780       H  0.28205910  0.02135134  0.43251542     0.30300
H1781       H  0.15676642  0.06308775  0.40888711     0.30300
H1782       H  0.23552039  0.06237519  0.50403251     0.30600
Zr1783     Zr  0.21750972  0.73046801  0.29031822     2.17500
O1784       O  0.24093656  0.70738360  0.26748406    -0.51800
O1785       O  0.19582021  0.73669238  0.24967597    -0.75000
O1786       O  0.19992649  0.69970710  0.28759017    -0.81700
O1787       O  0.26312246  0.76684825  0.28211883    -0.83500
O1788       O  0.17866166  0.69626219  0.32546805    -0.79100
O1789       O  0.24965591  0.73997892  0.26378738    -0.90700
O1790       O  0.16981322  0.75861173  0.26008408    -0.76700
O1791       O  0.18095387  0.73556123  0.30810995    -0.86200
O1792       O  0.21219871  0.76345294  0.28973749    -0.85900
O1793       O  0.21837261  0.71741698  0.33513889    -0.72600
O1794       O  0.24608512  0.74387548  0.31844723    -0.84800
Zr1795     Zr  0.20450416  0.76900084  0.38184802     2.26400
Zr1796     Zr  0.18200145  0.72371037  0.35355103     2.06300
Zr1797     Zr  0.23983587  0.77677527  0.31924561     2.10000
Zr1798     Zr  0.17571596  0.76834196  0.30724590     1.78800
O1799       O  0.27852528  0.78349101  0.33156389    -0.93600
O1800       O  0.13621934  0.75996867  0.30467187    -0.41400
O1801       O  0.20317805  0.78216509  0.33687446    -0.78000
O1802       O  0.17541619  0.75663555  0.35279057    -0.96700
O1803       O  0.21046374  0.73626462  0.38251553    -0.90000
O1804       O  0.24100701  0.76410242  0.36392962    -0.92900
C1805       C  0.17926298  0.74722994  0.24341903     1.00900
C1806       C  0.26389199  0.75330606  0.26516034     1.13800
C1807       C  0.18677984  0.69023884  0.30298961     1.04600
O1808       O  0.14320299  0.71424716  0.34728135    -0.95000
O1809       O  0.15860433  0.73208985  0.39187276    -0.90800
O1810       O  0.17196826  0.75946318  0.40809070    -0.83900
C1811       C  0.15780414  0.74604148  0.40812762     1.11200
O1812       O  0.27047283  0.70622905  0.34630364    -0.97000
Zr1813     Zr  0.24651659  0.73123161  0.36308813     1.88900
O1814       O  0.22894877  0.76246132  0.42078492    -0.73600
O1815       O  0.18868370  0.69822862  0.38511622    -0.52900
O1816       O  0.24105938  0.70356062  0.39085874    -0.97600
O1817       O  0.28645810  0.73843992  0.36187579    -0.54800
O1818       O  0.25516743  0.74130568  0.40817791    -0.74200
C1819       C  0.24646782  0.75250014  0.42534655     0.98200
O1820       O  0.18923792  0.79300357  0.41186328    -0.63000
O1821       O  0.23887692  0.80151249  0.28546194    -0.57800
O1822       O  0.21730683  0.80111834  0.38126950    -0.94500
O1823       O  0.23983610  0.80585650  0.34498556    -0.92900
O1824       O  0.17966149  0.79706325  0.28151621    -0.93200
O1825       O  0.15015589  0.79205825  0.32437838    -0.92000
C1826       C  0.23006939  0.81151842  0.36675922     1.17000
H1827       H  0.21370882  0.76842674  0.27158153     0.33000
H1828       H  0.16066101  0.75963787  0.35960431     0.43800
H1829       H  0.25228187  0.77040101  0.37460584     0.37400
H1830       H  0.22118035  0.70419462  0.33438551     0.33800
H1831       H  0.13028425  0.76725647  0.28920808     0.25600
H1832       H  0.19130040  0.70431110  0.40291083     0.31600
H1833       H  0.25273455  0.70427710  0.40510623     0.37500
H1834       H  0.18580038  0.80616879  0.29467969     0.31900
H1835       H  0.22819827  0.81081168  0.29273979     0.30800
H1836       H  0.28244865  0.79477279  0.32107025     0.32500
H1837       H  0.28845459  0.74900889  0.37457029     0.31500
H1838       H  0.15593103  0.79513288  0.34270808     0.35500
H1839       H  0.17336168  0.79466383  0.40655766     0.28200
H1840       H  0.23151979  0.70182236  0.25302884     0.32400
H1841       H  0.27916859  0.70194265  0.36224311     0.35300
H1842       H  0.25370723  0.80761483  0.28685647     0.27900
H1843       H  0.18886421  0.78759978  0.43036143     0.40700
H1844       H  0.13601763  0.72500049  0.33826472     0.30800
H1845       H  0.13615219  0.74694056  0.29808345     0.38400
H1846       H  0.28895330  0.74392458  0.34368194     0.30300
H1847       H  0.17389929  0.69213026  0.38709294     0.30300
H1848       H  0.24321557  0.69731423  0.28091538     0.30600
Zr1849     Zr  0.85432884  0.23983605  0.65782919     2.17500
O1850       O  0.87472324  0.21877892  0.62764924    -0.51800
O1851       O  0.83210541  0.24525166  0.61685476    -0.75000
O1852       O  0.83910229  0.20844078  0.65686660    -0.81700
O1853       O  0.90112667  0.27562414  0.65177261    -0.83500
O1854       O  0.81452624  0.20517209  0.69158707    -0.79100
O1855       O  0.88975220  0.24728181  0.63677763    -0.90700
O1856       O  0.80705653  0.26826935  0.62549747    -0.76700
O1857       O  0.81717811  0.24556730  0.67279282    -0.86200
O1858       O  0.84924022  0.27272408  0.65574934    -0.85900
O1859       O  0.85390512  0.22725301  0.70318911    -0.72600
O1860       O  0.88184042  0.25296379  0.68793113    -0.84800
Zr1861     Zr  0.83754715  0.28022928  0.74722665     2.26400
Zr1862     Zr  0.81653768  0.23379237  0.71807230     2.06300
Zr1863     Zr  0.87585524  0.28586609  0.68660423     2.10000
Zr1864     Zr  0.81235659  0.27847004  0.67185739     1.78800
O1865       O  0.91472451  0.29568738  0.69132522    -0.93600
O1866       O  0.77269004  0.27090870  0.66789480    -0.41400
O1867       O  0.83891602  0.29262058  0.70200993    -0.78000
O1868       O  0.81001741  0.26675697  0.71727496    -0.96700
O1869       O  0.84306920  0.24739022  0.74850047    -0.90000
O1870       O  0.87474655  0.27446187  0.73205516    -0.92900
C1871       C  0.81601822  0.25610577  0.60983946     1.00900
C1872       C  0.90345783  0.26098766  0.63721162     1.13800
C1873       C  0.82487563  0.19892909  0.67057275     1.04600
O1874       O  0.77701010  0.22982750  0.70735149    -0.95000
O1875       O  0.79646385  0.24093609  0.75900737    -0.90800
O1876       O  0.80769792  0.26873800  0.77639873    -0.83900
C1877       C  0.79521269  0.25416929  0.77641050     1.11200
O1878       O  0.90712391  0.21740152  0.72275335    -0.97000
Zr1879     Zr  0.88014411  0.24179686  0.73360046     1.88900
O1880       O  0.85739153  0.27421823  0.78931089    -0.73600
O1881       O  0.81727075  0.20792474  0.74995207    -0.52900
O1882       O  0.87499662  0.21400226  0.76123823    -0.97600
O1883       O  0.91910609  0.25199364  0.73484961    -0.54800
O1884       O  0.88306404  0.25176295  0.78067670    -0.74200
C1885       C  0.87319145  0.26325548  0.79674226     0.98200
O1886       O  0.81351106  0.30584888  0.76185107    -0.63000
O1887       O  0.86916222  0.31143300  0.65521142    -0.57800
O1888       O  0.85730058  0.30989902  0.75312164    -0.94500
O1889       O  0.88036674  0.31225767  0.71657598    -0.92900
O1890       O  0.81891566  0.30623219  0.64471101    -0.93200
O1891       O  0.78745412  0.30345988  0.68629730    -0.92000
C1892       C  0.87226048  0.31843428  0.73897951     1.17000
H1893       H  0.85146934  0.27737285  0.63754364     0.33000
H1894       H  0.79515829  0.26947091  0.72402589     0.43800
H1895       H  0.88564720  0.28069549  0.74336089     0.37400
H1896       H  0.85688564  0.21406164  0.70320028     0.33800
H1897       H  0.76710260  0.27888731  0.65297704     0.25600
H1898       H  0.80416914  0.20015225  0.74509943     0.31600
H1899       H  0.86365521  0.21751522  0.77502276     0.37500
H1900       H  0.80514348  0.30771692  0.63372303     0.31900
H1901       H  0.87796545  0.32196245  0.66261673     0.30800
H1902       H  0.91588932  0.30726284  0.68052414     0.32500
H1903       H  0.91977959  0.26150212  0.74941314     0.31500
H1904       H  0.78936914  0.30412224  0.70625448     0.35500
H1905       H  0.81419909  0.31489249  0.74672365     0.28200
H1906       H  0.86355812  0.21402631  0.61446038     0.32400
H1907       H  0.91569639  0.21531234  0.73970957     0.35300
H1908       H  0.87718350  0.30783083  0.63838767     0.27900
H1909       H  0.79800354  0.30101068  0.76094611     0.40700
H1910       H  0.77057301  0.24250040  0.70856084     0.30800
H1911       H  0.77237913  0.25815605  0.66023391     0.38400
H1912       H  0.92121946  0.25909415  0.71781484     0.30300
H1913       H  0.83049956  0.20045679  0.74463041     0.30300
H1914       H  0.87896914  0.20788521  0.63880949     0.30600
Zr1915     Zr  0.85561148  0.02259800  0.63049529     2.17500
O1916       O  0.87399299  0.04349833  0.66272929    -0.51800
O1917       O  0.83429742  0.01532542  0.67190082    -0.75000
O1918       O  0.83937491  0.05381764  0.63109312    -0.81700
O1919       O  0.90650673  0.99078428  0.63060865    -0.83500
O1920       O  0.81517902  0.05731190  0.59610695    -0.79100
O1921       O  0.89234465  0.01684614  0.65031535    -0.90700
O1922       O  0.80763145  0.99412178  0.66104233    -0.76700
O1923       O  0.81850766  0.01599130  0.61572892    -0.86200
O1924       O  0.85218102  0.98951138  0.63154760    -0.85900
O1925       O  0.85371188  0.03559466  0.58526553    -0.72600
O1926       O  0.88319714  0.01107105  0.59889673    -0.84800
Zr1927     Zr  0.83886492  0.98360222  0.53938007     2.26400
Zr1928     Zr  0.81640703  0.02845914  0.57065947     2.06300
Zr1929     Zr  0.87901800  0.97805906  0.59942842     2.10000
Zr1930     Zr  0.81538332  0.98288231  0.61580975     1.78800
O1931       O  0.91721526  0.96706510  0.59278505    -0.93600
O1932       O  0.77488045  0.98699495  0.61827013    -0.41400
O1933       O  0.84211133  0.97046763  0.58421836    -0.78000
O1934       O  0.81153385  0.99530898  0.57115160    -0.96700
O1935       O  0.84300300  0.01657276  0.53874790    -0.90000
O1936       O  0.87607990  0.98998519  0.55419303    -0.92900
C1937       C  0.81703805  0.00536419  0.67767793     1.00900
C1938       C  0.90788444  0.00470015  0.64690619     1.13800
C1939       C  0.82536716  0.06348992  0.61718958     1.04600
O1940       O  0.77781850  0.03563792  0.58282202    -0.95000
O1941       O  0.79157295  0.01906144  0.53453325    -0.90800
O1942       O  0.80570694  0.99323745  0.51373053    -0.83900
C1943       C  0.79076808  0.00600324  0.51677550     1.11200
O1944       O  0.90617510  0.04665088  0.56912071    -0.97000
Zr1945     Zr  0.88012506  0.02278224  0.55351877     1.88900
O1946       O  0.85788747  0.99155973  0.49703828    -0.73600
O1947       O  0.81804369  0.05350221  0.53737993    -0.52900
O1948       O  0.87504837  0.05219048  0.52970746    -0.97600
O1949       O  0.91889628  0.01266801  0.54797387    -0.54800
O1950       O  0.88193277  0.01529980  0.50517820    -0.74200
C1951       C  0.87249698  0.00353155  0.48912351     0.98200
O1952       O  0.81487984  0.95938541  0.52036027    -0.63000
O1953       O  0.87451794  0.95388640  0.63365435    -0.57800
O1954       O  0.85903263  0.95406638  0.53349693    -0.94500
O1955       O  0.88328435  0.95173888  0.56895132    -0.92900
O1956       O  0.82286597  0.95565936  0.64383217    -0.93200
O1957       O  0.79423852  0.95559073  0.60153039    -0.92000
C1958       C  0.87463993  0.94567439  0.54676044     1.17000
H1959       H  0.85483067  0.98471691  0.64960219     0.33000
H1960       H  0.79659163  0.99189809  0.56544532     0.43800
H1961       H  0.88695719  0.98421721  0.54230939     0.37400
H1962       H  0.85637393  0.04882218  0.58540745     0.33800
H1963       H  0.77016076  0.97970187  0.63434393     0.25600
H1964       H  0.82185145  0.04733887  0.51996210     0.31600
H1965       H  0.86531576  0.04919814  0.51400998     0.37500
H1966       H  0.82244485  0.96015921  0.66285123     0.31900
H1967       H  0.87446236  0.94207333  0.62325852     0.30800
H1968       H  0.91958481  0.95764122  0.60715463     0.32500
H1969       H  0.91920178  0.00543014  0.53083672     0.31500
H1970       H  0.79455474  0.95602483  0.58142414     0.35500
H1971       H  0.82287073  0.95467619  0.50409712     0.28200
H1972       H  0.86212198  0.04764400  0.67544864     0.32400
H1973       H  0.91600986  0.04929883  0.55338326     0.35300
H1974       H  0.88891593  0.95377849  0.64363143     0.27900
H1975       H  0.81539607  0.94903170  0.53359443     0.40700
H1976       H  0.77648752  0.03200461  0.60214594     0.30800
H1977       H  0.77274973  0.00012819  0.62381401     0.38400
H1978       H  0.92119928  0.00327916  0.56241101     0.30300
H1979       H  0.80227429  0.05748856  0.53511384     0.30300
H1980       H  0.87818836  0.05475517  0.65232152     0.30600
Zr1981     Zr  0.95278285  0.23693059  0.12988100     2.17500
O1982       O  0.93300151  0.21541221  0.15980061    -0.51800
O1983       O  0.97425450  0.24511460  0.17027826    -0.75000
O1984       O  0.96989883  0.20599292  0.13219342    -0.81700
O1985       O  0.90490971  0.27166275  0.13692736    -0.83500
O1986       O  0.99389442  0.20250217  0.09693890    -0.79100
O1987       O  0.91805437  0.24409443  0.15290938    -0.90700
O1988       O  0.99674567  0.26963645  0.16078660    -0.76700
O1989       O  0.98957419  0.24404292  0.11456968    -0.86200
O1990       O  0.95555519  0.27009238  0.12996314    -0.85900
O1991       O  0.95412072  0.22318556  0.08537971    -0.72600
O1992       O  0.92412312  0.24777259  0.09941772    -0.84800
Zr1993     Zr  0.96629491  0.27511469  0.03834450     2.26400
Zr1994     Zr  0.99098859  0.23082435  0.06998850     2.06300
Zr1995     Zr  0.92770321  0.28094299  0.09889756     2.10000
Zr1996     Zr  0.99192477  0.27720564  0.11335123     1.78800
O1997       O  0.88774323  0.28626718  0.09268973    -0.93600
O1998       O  0.03206292  0.27221910  0.11888255    -0.41400
O1999       O  0.96414276  0.28897106  0.08271057    -0.78000
O2000       O  0.99488742  0.26406410  0.06886520    -0.96700
O2001       O  0.96338149  0.24200418  0.03872129    -0.90000
O2002       O  0.92964924  0.26809572  0.05430982    -0.92900
C2003       C  0.98892487  0.25733250  0.17702294     1.00900
C2004       C  0.90401363  0.25758007  0.15278973     1.13800
C2005       C  0.98413675  0.19640839  0.11844052     1.04600
O2006       O  0.03025997  0.22689761  0.08211640    -0.95000
O2007       O  0.01223112  0.23926056  0.03034499    -0.90800
O2008       O  0.99609013  0.26384739  0.00898732    -0.83900
C2009       C  0.01115300  0.25114295  0.01103435     1.11200
O2010       O  0.90379888  0.20876091  0.06821205    -0.97000
Zr2011     Zr  0.92676127  0.23517784  0.05441186     1.88900
O2012       O  0.94441537  0.26842259  0.99770695    -0.73600
O2013       O  0.99123189  0.20438822  0.03889119    -0.52900
O2014       O  0.93647249  0.20732525  0.02862472    -0.97600
O2015       O  0.88645534  0.24055006  0.05273604    -0.54800
O2016       O  0.92023565  0.24513385  0.00778823    -0.74200
C2017       C  0.92847307  0.25718347  0.99133340     0.98200
O2018       O  0.99101020  0.29953783  0.02124179    -0.63000
O2019       O  0.93050080  0.30854060  0.12752269    -0.57800
O2020       O  0.94572615  0.30430235  0.03205144    -0.94500
O2021       O  0.92203070  0.30676220  0.06800754    -0.92900
O2022       O  0.98388389  0.30687885  0.13527851    -0.93200
O2023       O  0.01726219  0.30137522  0.09723350    -0.92000
C2024       C  0.93019477  0.31270381  0.04549788     1.17000
H2025       H  0.95306252  0.27521431  0.14789699     0.33000
H2026       H  0.00949597  0.26743682  0.06195860     0.43800
H2027       H  0.91825957  0.27352779  0.04288633     0.37400
H2028       H  0.95194740  0.20988869  0.08612139     0.33800
H2029       H  0.03577312  0.27770925  0.13680027     0.25600
H2030       H  0.00594919  0.19834850  0.04182502     0.31600
H2031       H  0.92606267  0.20721475  0.01298498     0.37500
H2032       H  0.99620378  0.30861036  0.14851245     0.31900
H2033       H  0.91640708  0.31542204  0.12410200     0.30800
H2034       H  0.88444672  0.28156016  0.07420246     0.32500
H2035       H  0.88446498  0.25123314  0.04030008     0.31500
H2036       H  0.00917868  0.30731403  0.08197987     0.35500
H2037       H  0.98735956  0.31076679  0.03207009     0.28200
H2038       H  0.94390788  0.21188392  0.17403793     0.32400
H2039       H  0.89572795  0.20473902  0.05162729     0.35300
H2040       H  0.92893057  0.30390845  0.14635770     0.27900
H2041       H  0.00617141  0.29606094  0.02763759     0.40700
H2042       H  0.03752368  0.23873926  0.07683342     0.30800
H2043       H  0.03367110  0.25863436  0.12156180     0.38400
H2044       H  0.88264168  0.24555595  0.07092271     0.30300
H2045       H  0.98019082  0.19551543  0.04644719     0.30300
H2046       H  0.93036486  0.20392665  0.14910751     0.30600
Zr2047     Zr  0.94978676  0.01936205  0.15276161     2.17500
O2048       O  0.93271098  0.03872752  0.11775467    -0.51800
O2049       O  0.97327203  0.01143930  0.11371461    -0.75000
O2050       O  0.96614264  0.05060521  0.15190171    -0.81700
O2051       O  0.89916838  0.98721400  0.14915532    -0.83500
O2052       O  0.99104685  0.05344530  0.18627734    -0.79100
O2053       O  0.91339928  0.01408689  0.13206847    -0.90700
O2054       O  0.99617723  0.98728821  0.12376235    -0.76700
O2055       O  0.98617451  0.01221036  0.16912731    -0.86200
O2056       O  0.95255905  0.98618797  0.15264809    -0.85900
O2057       O  0.95037023  0.03330252  0.19741956    -0.72600
O2058       O  0.92085865  0.00846660  0.18279768    -0.84800
Zr2059     Zr  0.96185046  0.98139535  0.24532873     2.26400
Zr2060     Zr  0.98693381  0.02550804  0.21367090     2.06300
Zr2061     Zr  0.92437487  0.97536961  0.18335999     2.10000
Zr2062     Zr  0.98859754  0.97908127  0.17047256     1.78800
O2063       O  0.88536463  0.96631643  0.18936701    -0.93600
O2064       O  0.02873858  0.98515488  0.16903985    -0.41400
O2065       O  0.96040925  0.96747546  0.20083960    -0.78000
O2066       O  0.99077196  0.99226750  0.21499720    -0.96700
O2067       O  0.95879976  0.01453226  0.24438723    -0.90000
O2068       O  0.92559120  0.98826425  0.22813134    -0.92900
C2069       C  0.98883360  0.99981203  0.10757202     1.00900
C2070       C  0.89807006  0.00164719  0.13393630     1.13800
C2071       C  0.98100910  0.05982426  0.16519002     1.04600
O2072       O  0.02647133  0.02897334  0.20241330    -0.95000
O2073       O  0.00761103  0.01741210  0.25378996    -0.90800
O2074       O  0.99360566  0.99124096  0.27305597    -0.83900
C2075       C  0.00804241  0.00447832  0.27165423     1.11200
O2076       O  0.89754842  0.04504513  0.20961339    -0.97000
Zr2077     Zr  0.92239439  0.02115447  0.22767362     1.88900
O2078       O  0.94107220  0.99008886  0.28632423    -0.73600
O2079       O  0.98753339  0.05226260  0.24416129    -0.52900
O2080       O  0.92677002  0.05065482  0.25160298    -0.97600
O2081       O  0.88315117  0.01199557  0.23138033    -0.54800
O2082       O  0.91807055  0.01414091  0.27571615    -0.74200
C2083       C  0.92629078  0.00242206  0.29266092     0.98200
O2084       O  0.98453073  0.95627969  0.26444102    -0.63000
O2085       O  0.93043168  0.95002725  0.15123450    -0.57800
O2086       O  0.93987275  0.95271239  0.25110809    -0.94500
O2087       O  0.91800347  0.94938655  0.21364549    -0.92900
O2088       O  0.98262365  0.95026455  0.14534847    -0.93200
O2089       O  0.01142536  0.95350040  0.18736384    -0.92000
C2090       C  0.92513933  0.94390916  0.23687526     1.17000
H2091       H  0.95044061  0.98114186  0.13460687     0.33000
H2092       H  0.00532679  0.98892841  0.22199422     0.43800
H2093       H  0.91407122  0.98289859  0.23945453     0.37400
H2094       H  0.94820912  0.04659328  0.19680109     0.33800
H2095       H  0.03393086  0.97944687  0.15182007     0.25600
H2096       H  0.00174098  0.05876727  0.23993766     0.31600
H2097       H  0.94003271  0.04886296  0.26338126     0.37500
H2098       H  0.99633886  0.94867062  0.13424532     0.31900
H2099       H  0.93660773  0.93977316  0.16236577     0.30800
H2100       H  0.88256737  0.95673992  0.17527299     0.32500
H2101       H  0.88200708  0.00484307  0.24849545     0.31500
H2102       H  0.01041954  0.95447312  0.20739369     0.35500
H2103       H  0.97969033  0.94470935  0.25521503     0.28200
H2104       H  0.94497464  0.04182698  0.10498994     0.32400
H2105       H  0.88775072  0.04871721  0.22496445     0.35300
H2106       H  0.91520691  0.94579105  0.14621285     0.27900
H2107       H  0.99981757  0.95834109  0.25721474     0.40700
H2108       H  0.03394487  0.01801785  0.21054639     0.30800
H2109       H  0.02997905  0.99871805  0.16589677     0.38400
H2110       H  0.88100858  0.00260001  0.21686014     0.30300
H2111       H  0.97566900  0.06065052  0.23728988     0.30300
H2112       H  0.92873802  0.05063082  0.12672393     0.30600
C2113       C  0.98612576  0.07936356  0.15655255    -0.20300
C2114       C  0.97762229  0.08698986  0.13213424     0.35900
C2115       C  0.98047796  0.10598834  0.12651377    -0.26300
C2116       C  0.99220833  0.11771409  0.14432033     0.02400
C2117       C  0.00208129  0.11001491  0.16779332     0.27200
C2118       C  0.99880729  0.09101916  0.17377944    -0.25400
N2119       N  0.96598237  0.07560505  0.11285828    -0.82800
H2120       H  0.97298212  0.11171075  0.10829979     0.13000
C2121       C  0.99279668  0.13812672  0.13874375     0.02300
N2122       N  0.01525898  0.12155958  0.18553267    -0.81300
H2123       H  0.00585307  0.08544444  0.19233588     0.17800
C2124       C  0.98416542  0.15054322  0.15814186    -0.26200
C2125       C  0.98223203  0.16971984  0.15269965     0.35800
C2126       C  0.98861046  0.17670749  0.12687610    -0.20200
C2127       C  0.99811734  0.16426344  0.10792153    -0.25500
C2128       C  0.00040764  0.14515715  0.11364785     0.27200
H2129       H  0.97839018  0.14515568  0.17746840     0.13000
N2130       N  0.97366935  0.18200478  0.17331415    -0.82700
H2131       H  0.00328674  0.16932697  0.08817300     0.17800
N2132       N  0.01021654  0.13279699  0.09394597    -0.81300
H2133       H  0.96940883  0.17461171  0.19085243     0.33500
H2134       H  0.98666110  0.19101747  0.17876870     0.37900
H2135       H  0.01489764  0.14009444  0.07648160     0.33400
H2136       H  0.02495112  0.12746350  0.10237146     0.30100
H2137       H  0.02139588  0.11381359  0.20187991     0.33400
H2138       H  0.02921908  0.12608199  0.17452531     0.30100
H2139       H  0.94997870  0.08119170  0.11002987     0.38000
H2140       H  0.97453328  0.07630135  0.09433677     0.33500
C2141       C  0.87920693  0.00376977  0.45964745    -0.20300
C2142       C  0.86814140  0.99289926  0.43955436     0.35900
C2143       C  0.87618193  0.99284312  0.41258327    -0.26300
C2144       C  0.89454673  0.00377017  0.40480780     0.02400
C2145       C  0.90507946  0.01513247  0.42436433     0.27200
C2146       C  0.89738083  0.01499949  0.45144230    -0.25400
N2147       N  0.84868418  0.98205612  0.44633846    -0.82800
H2148       H  0.86788199  0.98439116  0.39735379     0.13000
C2149       C  0.90254816  0.00324650  0.37607258     0.02300
N2150       N  0.92378394  0.02659051  0.41669313    -0.81300
H2151       H  0.90594149  0.02357671  0.46628235     0.17800
C2152       C  0.90116177  0.01933630  0.36009542    -0.26200
C2153       C  0.90885234  0.01951875  0.33300664     0.35800
C2154       C  0.91806081  0.00309882  0.32140741    -0.20200
C2155       C  0.91935394  0.98698864  0.33757211    -0.25500
C2156       C  0.91176953  0.98691480  0.36471056     0.27200
H2157       H  0.89412103  0.03187225  0.36892070     0.13000
N2158       N  0.90761969  0.03643146  0.31750520    -0.82700
H2159       H  0.92625712  0.97432927  0.32898725     0.17800
N2160       N  0.91359600  0.97035834  0.38090460    -0.81300
H2161       H  0.90005108  0.04703802  0.32883397     0.33500
H2162       H  0.92403619  0.04077559  0.31367236     0.37900
H2163       H  0.92058683  0.95949627  0.36954787     0.33400
H2164       H  0.92479859  0.97317977  0.39671350     0.30100
H2165       H  0.92960412  0.03423909  0.43335137     0.33400
H2166       H  0.93684062  0.01774831  0.41082150     0.30100
H2167       H  0.83584061  0.99136488  0.45131393     0.38000
H2168       H  0.84306260  0.97451448  0.42947419     0.33500
C2169       C  0.88046333  0.26339173  0.82580230    -0.20300
C2170       C  0.87404505  0.27749665  0.84453925     0.35900
C2171       C  0.88172607  0.27663636  0.87156457    -0.26300
C2172       C  0.89528604  0.26195356  0.88045229     0.02400
C2173       C  0.90168709  0.24793249  0.86203429     0.27200
C2174       C  0.89426261  0.24878893  0.83502246    -0.25400
N2175       N  0.86003782  0.29274669  0.83625390    -0.82800
H2176       H  0.87689447  0.28735651  0.88594417     0.13000
C2177       C  0.90289450  0.26140322  0.90911191     0.02300
N2178       N  0.91582506  0.23290779  0.87085958    -0.81300
H2179       H  0.89928976  0.23783464  0.82114780     0.17800
C2180       C  0.89517581  0.24720526  0.92613670    -0.26200
C2181       C  0.90302562  0.24544559  0.95296621     0.35800
C2182       C  0.91900426  0.25838084  0.96316308    -0.20200
C2183       C  0.92615242  0.27292006  0.94598373    -0.25500
C2184       C  0.91837266  0.27447673  0.91911308     0.27200
H2185       H  0.88320369  0.23723351  0.91821626     0.13000
N2186       N  0.89493027  0.23041970  0.96953153    -0.82700
H2187       H  0.93809735  0.28308143  0.95336635     0.17800
N2188       N  0.92637121  0.28912269  0.90176210    -0.81300
H2189       H  0.88231922  0.22301221  0.95948690     0.33500
H2190       H  0.90820202  0.22110097  0.97210296     0.37900
H2191       H  0.93763568  0.29768103  0.91219797     0.33400
H2192       H  0.93536031  0.28293650  0.88588912     0.30100
H2193       H  0.91888338  0.22362147  0.85489329     0.33400
H2194       H  0.93132207  0.23859898  0.87626068     0.30100
H2195       H  0.84391807  0.28745521  0.83321693     0.38000
H2196       H  0.85857021  0.30256220  0.85187489     0.33500
C2197       C  0.82096313  0.17932373  0.66187437    -0.20300
C2198       C  0.81445331  0.16537802  0.68057768     0.35900
C2199       C  0.81282177  0.14681375  0.67187494    -0.26300
C2200       C  0.81826251  0.14169281  0.64523128     0.02400
C2201       C  0.82435455  0.15547096  0.62631313     0.27200
C2202       C  0.82541131  0.17418029  0.63473800    -0.25400
N2203       N  0.81083077  0.16982618  0.70870706    -0.82800
H2204       H  0.80833025  0.13606727  0.68631203     0.13000
C2205       C  0.81957053  0.12164608  0.63838519     0.02300
N2206       N  0.83009440  0.15032988  0.59892121    -0.81300
H2207       H  0.83035726  0.18472099  0.62020440     0.17800
C2208       C  0.80449603  0.11387651  0.61976523    -0.26200
C2209       C  0.80530883  0.09480399  0.61318196     0.35800
C2210       C  0.82191382  0.08332532  0.62525540    -0.20200
C2211       C  0.83671089  0.09129514  0.64427850    -0.25500
C2212       C  0.83580787  0.11028411  0.65077991     0.27200
H2213       H  0.79193834  0.12272954  0.61053246     0.13000
N2214       N  0.78933286  0.08718432  0.59434205    -0.82700
H2215       H  0.84955140  0.08283143  0.65366596     0.17800
N2216       N  0.85159378  0.11820406  0.66961318    -0.81300
H2217       H  0.77875613  0.09759177  0.58689583     0.33500
H2218       H  0.77915633  0.07793112  0.60512108     0.37900
H2219       H  0.86240307  0.10797618  0.67709597     0.33400
H2220       H  0.86153161  0.12765759  0.65887668     0.30100
H2221       H  0.83421501  0.16211927  0.58754348     0.33400
H2222       H  0.84454113  0.14211539  0.59973949     0.30100
H2223       H  0.82640713  0.17341830  0.71686601     0.38000
H2224       H  0.80542937  0.15811123  0.71944439     0.33500
C2225       C  0.02756047  0.00468235  0.29040027    -0.20300
C2226       C  0.02997300  0.99225876  0.31255126     0.35900
C2227       C  0.04974521  0.99274523  0.32804748    -0.26300
C2228       C  0.06702078  0.00520437  0.32175859     0.02400
C2229       C  0.06450314  0.01787895  0.30036897     0.27200
C2230       C  0.04498301  0.01739989  0.28481719    -0.25400
N2231       N  0.01256095  0.97927271  0.31939642    -0.82800
H2232       H  0.05186595  0.98323036  0.34491183     0.13000
C2233       C  0.08752065  0.00547759  0.33826309     0.02300
N2234       N  0.08177219  0.03130085  0.29471101    -0.81300
H2235       H  0.04360304  0.02706599  0.26804889     0.17800
C2236       C  0.10797796  0.00046844  0.32626272    -0.26200
C2237       C  0.12811466  0.00200581  0.34079433     0.35800
C2238       C  0.12753932  0.00859411  0.36780148    -0.20200
C2239       C  0.10695052  0.01352546  0.37969952    -0.25500
C2240       C  0.08691178  0.01207008  0.36513759     0.27200
H2241       H  0.10819875  0.99565188  0.30537595     0.13000
N2242       N  0.14907655  0.99729709  0.32811705    -0.82700
H2243       H  0.10647118  0.01843467  0.40053226     0.17800
N2244       N  0.06597710  0.01745659  0.37733059    -0.81300
H2245       H  0.15857986  0.00948819  0.32679296     0.33500
H2246       H  0.14649611  0.99268364  0.30819695     0.37900
H2247       H  0.06844109  0.02193323  0.39733720     0.33400
H2248       H  0.05985870  0.02891584  0.36657503     0.30100
H2249       H  0.07739050  0.03959194  0.27810559     0.33400
H2250       H  0.08286891  0.04021196  0.31148864     0.30100
H2251       H  0.01278396  0.96879370  0.30465071     0.38000
H2252       H  0.01613139  0.97267704  0.33781437     0.33500
C2253       C  0.22806901  0.92764205  0.41119628    -0.20300
C2254       C  0.20972549  0.91701785  0.40147607     0.35900
C2255       C  0.21267307  0.89800815  0.39572244    -0.26300
C2256       C  0.23333358  0.88918704  0.39977462     0.02400
C2257       C  0.25162922  0.89960164  0.40958054     0.27200
C2258       C  0.24883142  0.91871732  0.41514912    -0.25400
N2259       N  0.18802116  0.92537203  0.39801748    -0.82800
H2260       H  0.19866375  0.88989722  0.38821019     0.13000
C2261       C  0.23510531  0.86897602  0.39359419     0.02300
N2262       N  0.27286645  0.89069976  0.41406026    -0.81300
H2263       H  0.26296377  0.92668525  0.42261509     0.17800
C2264       C  0.24783677  0.86297222  0.37130326    -0.26200
C2265       C  0.24690047  0.84436011  0.36212432     0.35800
C2266       C  0.23309405  0.83131810  0.37594919    -0.20200
C2267       C  0.22139576  0.83739001  0.39927797    -0.25500
C2268       C  0.22225329  0.85596501  0.40815366     0.27200
H2269       H  0.25772333  0.87308169  0.36022414     0.13000
N2270       N  0.25959787  0.83894176  0.33857413    -0.82700
H2271       H  0.21108258  0.82771203  0.41054865     0.17800
N2272       N  0.20976422  0.86180434  0.43167641    -0.81300
H2273       H  0.27001015  0.84980186  0.33222690     0.33500
H2274       H  0.24820716  0.83675063  0.32276202     0.37900
H2275       H  0.20089125  0.85062905  0.43997948     0.33400
H2276       H  0.22130367  0.86605873  0.44641328     0.30100
H2277       H  0.28463691  0.90031768  0.42118914     0.33400
H2278       H  0.27066905  0.88089879  0.42951103     0.30100
H2279       H  0.18215380  0.92913811  0.41728543     0.38000
H2280       H  0.17657043  0.91572115  0.39024292     0.33500
C2281       C  0.17107995  0.74642629  0.21479538    -0.20300
C2282       C  0.14832946  0.74937099  0.20799544     0.35900
C2283       C  0.14172729  0.74913576  0.18047798    -0.26300
C2284       C  0.15728986  0.74591565  0.15958536     0.02400
C2285       C  0.17988001  0.74254216  0.16633573     0.27200
C2286       C  0.18652031  0.74278496  0.19379972    -0.25400
N2287       N  0.13196485  0.75237321  0.22899742    -0.82800
H2288       H  0.12435715  0.75161859  0.17522143     0.13000
C2289       C  0.14974201  0.74657760  0.13070829     0.02300
N2290       N  0.19598790  0.73894103  0.14524033    -0.81300
H2291       H  0.20397328  0.74043328  0.19879581     0.17800
C2292       C  0.15711822  0.76107596  0.11395081    -0.26200
C2293       C  0.14956878  0.76282328  0.08692102     0.35800
C2294       C  0.13441834  0.74948585  0.07602322    -0.20200
C2295       C  0.12728775  0.73482621  0.09304961    -0.25500
C2296       C  0.13485941  0.73321201  0.12009255     0.27200
H2297       H  0.16850412  0.77135954  0.12227024     0.13000
N2298       N  0.15712471  0.77826604  0.07081746    -0.82700
H2299       H  0.11587403  0.72439642  0.08522778     0.17800
N2300       N  0.12767318  0.71793914  0.13679284    -0.81300
H2301       H  0.16904503  0.78611432  0.08137321     0.33500
H2302       H  0.14337111  0.78703713  0.06788105     0.37900
H2303       H  0.11670204  0.70928839  0.12605992     0.33400
H2304       H  0.14181358  0.70992124  0.14128243     0.30100
H2305       H  0.21191339  0.73685057  0.15353982     0.33400
H2306       H  0.19145863  0.72645858  0.13576355     0.30100
H2307       H  0.13101043  0.74017912  0.24050343     0.38000
H2308       H  0.11607842  0.75443582  0.22058269     0.33500
C2309       C  0.05350177  0.00351742  0.95032376    -0.20300
C2310       C  0.06523899  0.99797466  0.97391725     0.35900
C2311       C  0.05407994  0.99773386  0.99914295    -0.26300
C2312       C  0.03151849  0.00304917  0.00145327     0.02400
C2313       C  0.01988535  0.00894065  0.97808038     0.27200
C2314       C  0.03098474  0.00916455  0.95284372    -0.25400
N2315       N  0.08852631  0.99297044  0.97235448    -0.82800
H2316       H  0.06307517  0.99351666  0.01723235     0.13000
C2317       C  0.02024989  0.00209859  0.02843985     0.02300
N2318       N  0.99676813  0.01443509  0.98001371    -0.81300
H2319       H  0.02183992  0.01350481  0.93492856     0.17800
C2320       C  0.01117106  0.01829305  0.04004964    -0.26200
C2321       C  0.00089570  0.01795870  0.06582170     0.35800
C2322       C  0.99925591  0.00092931  0.08011430    -0.20200
C2323       C  0.00842322  0.98474984  0.06839727    -0.25500
C2324       C  0.01880416  0.98515101  0.04273613     0.27200
H2325       H  0.01257624  0.03134052  0.02917839     0.13000
N2326       N  0.99274770  0.03494221  0.07779079    -0.82700
H2327       H  0.00730644  0.97165645  0.07920014     0.17800
N2328       N  0.02776822  0.96838189  0.03100339    -0.81300
H2329       H  0.99506179  0.04614625  0.06456034     0.33500
H2330       H  0.00251996  0.03771972  0.09496129     0.37900
H2331       H  0.02551495  0.95711866  0.04414069     0.33400
H2332       H  0.01852585  0.96543897  0.01347008     0.30100
H2333       H  0.99065799  0.01847481  0.96101118     0.33400
H2334       H  0.98753015  0.00274358  0.98585685     0.30100
H2335       H  0.09743499  0.00485706  0.96658428     0.38000
H2336       H  0.09459037  0.98915726  0.99147918     0.33500
C2337       C  0.92891204  0.00684127  0.66255125    -0.20300
C2338       C  0.94978744  0.00180012  0.65112272     0.35900
C2339       C  0.96913076  0.00241388  0.66726574    -0.26300
C2340       C  0.96816462  0.00817465  0.69445576     0.02400
C2341       C  0.94754440  0.01413089  0.70554862     0.27200
C2342       C  0.92810686  0.01347993  0.68940641    -0.25400
N2343       N  0.95130978  0.99625118  0.62308598    -0.82800
H2344       H  0.98510715  0.99832368  0.65864412     0.13000
C2345       C  0.98883094  0.00737415  0.71114941     0.02300
N2346       N  0.94635606  0.02042285  0.73327137    -0.81300
H2347       H  0.91215660  0.01756245  0.69810340     0.17800
C2348       C  0.99701058  0.02364522  0.72344641    -0.26200
C2349       C  0.01620881  0.02323492  0.73998013     0.35800
C2350       C  0.02751707  0.00618786  0.74400489    -0.20200
C2351       C  0.01952903  0.99000676  0.73128450    -0.25500
C2352       C  0.00034587  0.99041019  0.71486138     0.27200
H2353       H  0.98822489  0.03666359  0.72032296     0.13000
N2354       N  0.02384084  0.03991630  0.75325201    -0.82700
H2355       H  0.02822351  0.97693566  0.73437428     0.17800
N2356       N  0.99234030  0.97361916  0.70221272    -0.81300
H2357       H  0.01374307  0.05123680  0.74797253     0.33500
H2358       H  0.02192052  0.03802722  0.77418952     0.37900
H2359       H  0.00287817  0.96241543  0.70671032     0.33400
H2360       H  0.97671679  0.97051775  0.71068431     0.30100
H2361       H  0.93000523  0.02441009  0.73822496     0.33400
H2362       H  0.95032807  0.00914219  0.74576047     0.30100
H2363       H  0.94687169  0.00774103  0.61124178     0.38000
H2364       H  0.96782749  0.99290514  0.61793856     0.33500
C2365       C  0.14230372  0.00462053  0.71326634    -0.20300
C2366       C  0.16186494  0.99492156  0.70493739     0.35900
C2367       C  0.16803658  0.99495340  0.67733783    -0.26300
C2368       C  0.15531026  0.00454253  0.65799013     0.02400
C2369       C  0.13612096  0.01443288  0.66615497     0.27200
C2370       C  0.12981721  0.01436803  0.69360175    -0.25400
N2371       N  0.17548130  0.98516072  0.72433513    -0.82800
H2372       H  0.18287260  0.98747642  0.67080827     0.13000
C2373       C  0.16236259  0.00436831  0.62917402     0.02300
N2374       N  0.12311775  0.02450961  0.64646997    -0.81300
H2375       H  0.11484181  0.02186773  0.69951836     0.17800
C2376       C  0.14841753  0.99608280  0.60973258    -0.26200
C2377       C  0.15398733  0.99639562  0.58199976     0.35800
C2378       C  0.17434875  0.00478917  0.57364816    -0.20200
C2379       C  0.18828658  0.01300779  0.59336153    -0.25500
C2380       C  0.18237515  0.01304809  0.62097222     0.27200
H2381       H  0.13290973  0.98963028  0.61625199     0.13000
N2382       N  0.13876079  0.98863362  0.56238491    -0.82700
H2383       H  0.20387148  0.01949712  0.58724193     0.17800
N2384       N  0.19641902  0.02210107  0.64070680    -0.81300
H2385       H  0.12484671  0.98273886  0.57200191     0.33500
H2386       H  0.13268090  0.99963688  0.55063399     0.37900
H2387       H  0.21057627  0.02780466  0.63137391     0.33400
H2388       H  0.18735498  0.03325999  0.64883085     0.30100
H2389       H  0.10939136  0.03097648  0.65572725     0.33400
H2390       H  0.13322088  0.03514296  0.63873341     0.30100
H2391       H  0.18268899  0.99511860  0.73715238     0.38000
H2392       H  0.18875787  0.97833880  0.71465543     0.33500
C2393       C  0.07320196  0.83140479  0.91586810    -0.20300
C2394       C  0.09211011  0.84307186  0.91325681     0.35900
C2395       C  0.08919815  0.86172673  0.90568927    -0.26300
C2396       C  0.06783313  0.86894574  0.90056410     0.02400
C2397       C  0.04886057  0.85743527  0.90333961     0.27200
C2398       C  0.05170835  0.83872888  0.91125170    -0.25400
N2399       N  0.11418965  0.83595059  0.91857430    -0.82800
H2400       H  0.10368279  0.87070791  0.90355260     0.13000
C2401       C  0.06608616  0.88855007  0.89166507     0.02300
N2402       N  0.02692445  0.86473800  0.89780286    -0.81300
H2403       H  0.03722695  0.82973794  0.91324159     0.17800
C2404       C  0.06401488  0.89243634  0.86390408    -0.26200
C2405       C  0.06652619  0.91069338  0.85401688     0.35800
C2406       C  0.07066176  0.92543397  0.87252499    -0.20200
C2407       C  0.07156301  0.92147168  0.90052685    -0.25500
C2408       C  0.06946283  0.90319001  0.91022729     0.27200
H2409       H  0.06169247  0.88100961  0.84977255     0.13000
N2410       N  0.06604070  0.91405619  0.82523817    -0.82700
H2411       H  0.07447400  0.93263664  0.91493608     0.17800
N2412       N  0.07148470  0.89929936  0.93876703    -0.81300
H2413       H  0.06234530  0.90181233  0.81462684     0.33500
H2414       H  0.08221593  0.91793114  0.81936137     0.37900
H2415       H  0.07425978  0.91156814  0.94972709     0.33400
H2416       H  0.05611421  0.89399134  0.94537986     0.30100
H2417       H  0.01476802  0.85443246  0.90054298     0.33400
H2418       H  0.02363115  0.87511759  0.91218405     0.30100
H2419       H  0.12627538  0.84626863  0.91549056     0.38000
H2420       H  0.11490309  0.83242330  0.93915830     0.33500
C2421       C  0.67690353  0.25230354  0.87324143    -0.20300
C2422       C  0.67820239  0.26086720  0.84750135     0.35900
C2423       C  0.69884806  0.26127170  0.83394452    -0.26300
C2424       C  0.71784081  0.25287284  0.84530476     0.02400
C2425       C  0.71655159  0.24402846  0.87062736     0.27200
C2426       C  0.69616115  0.24408004  0.88456817    -0.25400
N2427       N  0.65858384  0.26863452  0.83493840    -0.82800
H2428       H  0.70008445  0.26771667  0.81410187     0.13000
C2429       C  0.73848048  0.25209440  0.82923523     0.02300
N2430       N  0.73582131  0.23475681  0.88175949    -0.81300
H2431       H  0.69532798  0.23756121  0.90437165     0.17800
C2432       C  0.75723561  0.26245233  0.83728182    -0.26200
C2433       C  0.77660638  0.26284977  0.82106511     0.35800
C2434       C  0.77685580  0.25273902  0.79639257    -0.20200
C2435       C  0.75826763  0.24168366  0.78933511    -0.25500
C2436       C  0.73913696  0.24123618  0.80554311     0.27200
H2437       H  0.75654491  0.27047285  0.85594128     0.13000
N2438       N  0.79579468  0.27349583  0.82944691    -0.82700
H2439       H  0.75824442  0.23378809  0.77055502     0.17800
N2440       N  0.72012687  0.23010348  0.79782912    -0.81300
H2441       H  0.80885681  0.26412147  0.83304984     0.33500
H2442       H  0.79264153  0.28026493  0.84788988     0.37900
H2443       H  0.72323665  0.22306494  0.77959358     0.33400
H2444       H  0.71795277  0.21990663  0.81272867     0.30100
H2445       H  0.73202284  0.22896080  0.90068481     0.33400
H2446       H  0.73975701  0.22363357  0.86887140     0.30100
H2447       H  0.64746348  0.25768571  0.83115507     0.38000
H2448       H  0.66255553  0.27438539  0.81603532     0.33500
C2449       C  0.57300552  0.43068609  0.87338172    -0.20300
C2450       C  0.57740932  0.42450690  0.90015369     0.35900
C2451       C  0.57668776  0.40539943  0.90597238    -0.26300
C2452       C  0.57129618  0.39236677  0.88586257     0.02400
C2453       C  0.56572611  0.39844750  0.85952846     0.27200
C2454       C  0.56653238  0.41759346  0.85355499    -0.25400
N2455       N  0.58262085  0.43761108  0.92135189    -0.82800
H2456       H  0.58063321  0.40056347  0.92626185     0.13000
C2457       C  0.57264783  0.37237324  0.89276441     0.02300
N2458       N  0.55951701  0.38517131  0.83897335    -0.81300
H2459       H  0.56293087  0.42221159  0.83306943     0.17800
C2460       C  0.55382282  0.36331858  0.90338391    -0.26200
C2461       C  0.55520004  0.34487533  0.91291725     0.35800
C2462       C  0.57584210  0.33516185  0.91108809    -0.20200
C2463       C  0.59457054  0.34436566  0.90005492    -0.25500
C2464       C  0.59322567  0.36289143  0.89114855     0.27200
H2465       H  0.53815190  0.37087110  0.90489761     0.13000
N2466       N  0.53564625  0.33603145  0.92404752    -0.82700
H2467       H  0.61050627  0.33718822  0.89883614     0.17800
N2468       N  0.61281134  0.37232717  0.88116461    -0.81300
H2469       H  0.52156926  0.34453950  0.92168564     0.33500
H2470       H  0.53810593  0.33483316  0.94500140     0.37900
H2471       H  0.62677885  0.36355868  0.88188195     0.33400
H2472       H  0.61010974  0.37541934  0.86068274     0.30100
H2473       H  0.55565227  0.39194704  0.82078347     0.33400
H2474       H  0.57347592  0.37680978  0.83500392     0.30100
H2475       H  0.56845975  0.44593031  0.92438837     0.38000
H2476       H  0.58562373  0.43075590  0.93971476     0.33500
C2477       C  0.75189151  0.24934094  0.45295772    -0.20300
C2478       C  0.77336898  0.24120007  0.45696402     0.35900
C2479       C  0.78317507  0.24139918  0.48292010    -0.26300
C2480       C  0.77247276  0.24985618  0.50500657     0.02400
C2481       C  0.75114434  0.25795306  0.50127642     0.27200
C2482       C  0.74108941  0.25763071  0.47534734    -0.25400
N2483       N  0.78559264  0.23323870  0.43459021    -0.82800
H2484       H  0.79969743  0.23546085  0.48577929     0.13000
C2485       C  0.78442927  0.25105447  0.53151081     0.02300
N2486       N  0.73978793  0.26644064  0.52389725    -0.81300
H2487       H  0.72467554  0.26379749  0.47269134     0.17800
C2488       C  0.78931988  0.26865754  0.54232791    -0.26200
C2489       C  0.80049017  0.27057315  0.56729741     0.35800
C2490       C  0.80677022  0.25452145  0.58196778    -0.20200
C2491       C  0.80276365  0.23687480  0.57062493    -0.25500
C2492       C  0.79152630  0.23497144  0.54557628     0.27200
H2493       H  0.78446266  0.28097755  0.53111375     0.13000
N2494       N  0.80564929  0.28877769  0.57775575    -0.82700
H2495       H  0.80764175  0.22454948  0.58181932     0.17800
N2496       N  0.78687675  0.21680911  0.53464357    -0.81300
H2497       H  0.79992111  0.29910714  0.56453538     0.33500
H2498       H  0.82309829  0.29000767  0.57843432     0.37900
H2499       H  0.79321580  0.20645796  0.54741396     0.33400
H2500       H  0.76947874  0.21512884  0.53430877     0.30100
H2501       H  0.72427957  0.27177502  0.51784845     0.33400
H2502       H  0.73646982  0.25598992  0.53809599     0.30100
H2503       H  0.78996010  0.24414790  0.42159601     0.38000
H2504       H  0.80063756  0.22732550  0.44119360     0.33500
C2505       C  0.88496501  0.25656799  0.17154588    -0.20300
C2506       C  0.87673693  0.27268405  0.18452583     0.35900
C2507       C  0.85707639  0.27151001  0.19990111    -0.26300
C2508       C  0.84589328  0.25449643  0.20303236     0.02400
C2509       C  0.85449993  0.23825286  0.19084109     0.27200
C2510       C  0.87405480  0.23944989  0.17515725    -0.25400
N2511       N  0.88848840  0.29008706  0.18222093    -0.82800
H2512       H  0.85041346  0.28389766  0.20957694     0.13000
C2513       C  0.82548668  0.25399597  0.21983461     0.02300
N2514       N  0.84331290  0.22070488  0.19439323    -0.81300
H2515       H  0.88049134  0.22709664  0.16516759     0.17800
C2516       C  0.80505572  0.24861220  0.20815543    -0.26200
C2517       C  0.78515439  0.24902668  0.22338634     0.35800
C2518       C  0.78591566  0.25508740  0.25071174    -0.20200
C2519       C  0.80650477  0.26022962  0.26229737    -0.25500
C2520       C  0.82632190  0.25954475  0.24723344     0.27200
H2521       H  0.80462220  0.24441936  0.18699249     0.13000
N2522       N  0.76426982  0.24364526  0.21111322    -0.82700
H2523       H  0.80722806  0.26449906  0.28341543     0.17800
N2524       N  0.84736454  0.26435806  0.25962812    -0.81300
H2525       H  0.76676106  0.23936199  0.19101555     0.33500
H2526       H  0.75405312  0.25545467  0.21035690     0.37900
H2527       H  0.84506179  0.26820551  0.27994266     0.33400
H2528       H  0.85733662  0.25239205  0.25971460     0.30100
H2529       H  0.85177299  0.21014958  0.18392638     0.33400
H2530       H  0.84410431  0.21732025  0.21502388     0.30100
H2531       H  0.90411547  0.28843533  0.19150896     0.38000
H2532       H  0.88014869  0.30056518  0.19299258     0.33500
C2533       C  0.66811456  0.25490322  0.21364113    -0.20300
C2534       C  0.67408395  0.24114514  0.19419474     0.35900
C2535       C  0.66484176  0.24191534  0.16800414    -0.26300
C2536       C  0.64961249  0.25586602  0.16075096     0.02400
C2537       C  0.64297664  0.26917797  0.18016260     0.27200
C2538       C  0.65226954  0.26856645  0.20636331    -0.25400
N2539       N  0.68938312  0.22638955  0.20092040    -0.82800
H2540       H  0.66955301  0.23155049  0.15301466     0.13000
C2541       C  0.64157961  0.25669656  0.13232834     0.02300
N2542       N  0.62714474  0.28344385  0.17304536    -0.81300
H2543       H  0.64734455  0.27908404  0.22099241     0.17800
C2544       C  0.61863924  0.25485224  0.12668527    -0.26200
C2545       C  0.61075078  0.25504407  0.09975828     0.35800
C2546       C  0.62624022  0.25699276  0.07821735    -0.20200
C2547       C  0.64909550  0.25912690  0.08402226    -0.25500
C2548       C  0.65692583  0.25901360  0.11082507     0.27200
H2549       H  0.60693270  0.25312600  0.14333190     0.13000
N2550       N  0.58716749  0.25345898  0.09425660    -0.82700
H2551       H  0.66097754  0.26062679  0.06750536     0.17800
N2552       N  0.68043350  0.26121363  0.11635343    -0.81300
H2553       H  0.57812739  0.25202779  0.11234163     0.33500
H2554       H  0.58193939  0.26595620  0.08544151     0.37900
H2555       H  0.68949946  0.26255005  0.09827365     0.33400
H2556       H  0.68246169  0.27370160  0.12701593     0.30100
H2557       H  0.62389945  0.29208568  0.18971142     0.33400
H2558       H  0.63454228  0.29179668  0.15816068     0.30100
H2559       H  0.68149225  0.21792047  0.21529091     0.38000
H2560       H  0.69251557  0.21794356  0.18400665     0.33500
C2561       C  0.67196248  0.50964015  0.57230461    -0.20300
C2562       C  0.68456910  0.51811489  0.59341417     0.35900
C2563       C  0.67606986  0.51826069  0.62009898    -0.26300
C2564       C  0.65571773  0.50957041  0.62655218     0.02400
C2565       C  0.64340333  0.50070056  0.60580623     0.27200
C2566       C  0.65146131  0.50104655  0.57893442    -0.25400
N2567       N  0.70614517  0.52621058  0.58796166    -0.82800
H2568       H  0.68554028  0.52499325  0.63612499     0.13000
C2569       C  0.64771242  0.50959707  0.65523034     0.02300
N2570       N  0.62293885  0.49110027  0.61221393    -0.81300
H2571       H  0.64167868  0.49440445  0.56311924     0.17800
C2572       C  0.62666179  0.51716500  0.66148327    -0.26200
C2573       C  0.61853015  0.51753937  0.68834783     0.35800
C2574       C  0.63187554  0.51020863  0.70962776    -0.20200
C2575       C  0.65296012  0.50257671  0.70315012    -0.25500
C2576       C  0.66090696  0.50206944  0.67625709     0.27200
H2577       H  0.61655786  0.52292783  0.64526248     0.13000
N2578       N  0.59653391  0.52483037  0.69376245    -0.82700
H2579       H  0.66333346  0.49685934  0.71914818     0.17800
N2580       N  0.68218867  0.49366080  0.67012854    -0.81300
H2581       H  0.58815370  0.52774406  0.67561009     0.33500
H2582       H  0.59856198  0.53762695  0.70360058     0.37900
H2583       H  0.68986920  0.48881241  0.68784294     0.33400
H2584       H  0.67913670  0.48198618  0.65795779     0.30100
H2585       H  0.61589360  0.48527387  0.59470738     0.33400
H2586       H  0.62699612  0.48000178  0.62501374     0.30100
H2587       H  0.71693347  0.51540055  0.58231687     0.38000
H2588       H  0.71293118  0.53210557  0.60557214     0.33500
C2589       C  0.73306422  0.42896722  0.41071922    -0.20300
C2590       C  0.72341713  0.42113276  0.38693501     0.35900
C2591       C  0.72470654  0.40183072  0.38244817    -0.26300
C2592       C  0.73610827  0.39015461  0.40044054     0.02400
C2593       C  0.74725510  0.39792663  0.42299046     0.27200
C2594       C  0.74546568  0.41720594  0.42804875    -0.25400
N2595       N  0.71246027  0.43270890  0.36722703    -0.82800
H2596       H  0.71673417  0.39578255  0.36472373     0.13000
C2597       C  0.73584832  0.36980812  0.39511589     0.02300
N2598       N  0.76055391  0.38629137  0.44041195    -0.81300
H2599       H  0.75347540  0.42295981  0.44593534     0.17800
C2600       C  0.75085635  0.36226867  0.37621320    -0.26200
C2601       C  0.74954450  0.34344678  0.36824068     0.35800
C2602       C  0.73259499  0.33181336  0.37940122    -0.20200
C2603       C  0.71788414  0.33951331  0.39884267    -0.25500
C2604       C  0.71921181  0.35836128  0.40658150     0.27200
H2605       H  0.76342177  0.37125659  0.36725430     0.13000
N2606       N  0.76520815  0.33632934  0.34858481    -0.82700
H2607       H  0.70477170  0.33096844  0.40752248     0.17800
N2608       N  0.70302036  0.36616481  0.42502314    -0.81300
H2609       H  0.77581418  0.34687933  0.34162880     0.33500
H2610       H  0.77542314  0.32668429  0.35852506     0.37900
H2611       H  0.69142829  0.35605947  0.43100045     0.33400
H2612       H  0.71146243  0.37030159  0.44261171     0.30100
H2613       H  0.76805038  0.39422403  0.45574963     0.33400
H2614       H  0.74985283  0.37690231  0.45008543     0.30100
H2615       H  0.72468896  0.44131148  0.35865000     0.38000
H2616       H  0.70592687  0.42471458  0.35131770     0.33500
C2617       C  0.92108156  0.83405712  0.54144940    -0.20300
C2618       C  0.90114782  0.84082778  0.55369756     0.35900
C2619       C  0.89345274  0.85880089  0.54795233    -0.26300
C2620       C  0.90487640  0.87044251  0.52988115     0.02400
C2621       C  0.92399628  0.86347763  0.51623970     0.27200
C2622       C  0.93188422  0.84534402  0.52209860    -0.25400
N2623       N  0.88862386  0.82961687  0.57235744    -0.82800
H2624       H  0.87880723  0.86395341  0.55861655     0.13000
C2625       C  0.89775813  0.89034982  0.52809816     0.02300
N2626       N  0.93552646  0.87497232  0.49689745    -0.81300
H2627       H  0.94696340  0.84031496  0.51226546     0.17800
C2628       C  0.91307662  0.90426943  0.53547410    -0.26200
C2629       C  0.90611263  0.92275635  0.53966090     0.35800
C2630       C  0.88323913  0.92748646  0.53666427    -0.20200
C2631       C  0.86822855  0.91392660  0.52710489    -0.25500
C2632       C  0.87523687  0.89537057  0.52293691     0.27200
H2633       H  0.93034331  0.90050466  0.53944875     0.13000
N2634       N  0.92209696  0.93667977  0.54772504    -0.82700
H2635       H  0.85073482  0.91753334  0.52448729     0.17800
N2636       N  0.85941601  0.88142544  0.51453057    -0.81300
H2637       H  0.93813849  0.93094081  0.54933229     0.33500
H2638       H  0.92282930  0.94659989  0.53223400     0.37900
H2639       H  0.84354020  0.88728719  0.51183681     0.33400
H2640       H  0.86454343  0.87646861  0.49552982     0.30100
H2641       H  0.94923703  0.86786476  0.48866429     0.33400
H2642       H  0.92449111  0.87752878  0.48084043     0.30100
H2643       H  0.88775757  0.83667125  0.59094059     0.38000
H2644       H  0.87233191  0.82816648  0.56485125     0.33500
C2645       C  0.05469390  0.75293830  0.83400026    -0.20300
C2646       C  0.06701058  0.75815633  0.81069455     0.35900
C2647       C  0.05620031  0.75868007  0.78532255    -0.26300
C2648       C  0.03360069  0.75359563  0.78268232     0.02400
C2649       C  0.02145626  0.74793061  0.80575244     0.27200
C2650       C  0.03206649  0.74778974  0.83116308    -0.25400
N2651       N  0.09050680  0.76235522  0.81267538    -0.82800
H2652       H  0.06553175  0.76269249  0.76736670     0.13000
C2653       C  0.02291067  0.75416228  0.75554904     0.02300
N2654       N  0.99840177  0.74236845  0.80326163    -0.81300
H2655       H  0.02253099  0.74369264  0.84891696     0.17800
C2656       C  0.01455556  0.73769180  0.74404405    -0.26200
C2657       C  0.00481629  0.73763460  0.71803856     0.35800
C2658       C  0.00329387  0.75446792  0.70335864    -0.20200
C2659       C  0.01161505  0.77094858  0.71508789    -0.25500
C2660       C  0.02123185  0.77098888  0.74109316     0.27200
H2661       H  0.01605706  0.72477499  0.75522861     0.13000
N2662       N  0.99711186  0.72048828  0.70624647    -0.82700
H2663       H  0.01037367  0.78393594  0.70403328     0.17800
N2664       N  0.02914572  0.78805435  0.75301676    -0.81300
H2665       H  0.99923141  0.70945822  0.71983315     0.33500
H2666       H  0.00734401  0.71761768  0.68949528     0.37900
H2667       H  0.02679954  0.79919092  0.73967460     0.33400
H2668       H  0.01925641  0.79080182  0.77010940     0.30100
H2669       H  0.99194574  0.73837190  0.82212523     0.33400
H2670       H  0.98922737  0.75400199  0.79705909     0.30100
H2671       H  0.09873355  0.75016254  0.81856957     0.38000
H2672       H  0.09699739  0.76594704  0.79365292     0.33500
C2673       C  0.03469622  0.75861626  0.49521712    -0.20300
C2674       C  0.05474787  0.76496253  0.50715002     0.35900
C2675       C  0.07479717  0.76349494  0.49259538    -0.26300
C2676       C  0.07508031  0.75567448  0.46653015     0.02400
C2677       C  0.05491109  0.74976831  0.45428153     0.27200
C2678       C  0.03474924  0.75128980  0.46887061    -0.25400
N2679       N  0.05471014  0.77214478  0.53446463    -0.82800
H2680       H  0.09038044  0.76792696  0.50187716     0.13000
C2681       C  0.09683241  0.75322127  0.45279297     0.02300
N2682       N  0.05513195  0.74196295  0.42736872    -0.81300
H2683       H  0.01925225  0.74618311  0.46014407     0.17800
C2684       C  0.10439249  0.73519783  0.44688710    -0.26200
C2685       C  0.12494316  0.73229910  0.43366103     0.35800
C2686       C  0.13810516  0.74783157  0.42621587    -0.20200
C2687       C  0.13086119  0.76582611  0.43338954    -0.25500
C2688       C  0.11022923  0.76868449  0.44629879     0.27200
H2689       H  0.09414279  0.72337639  0.45256707     0.13000
N2690       N  0.13237064  0.71370604  0.42763598    -0.82700
H2691       H  0.14072962  0.77783501  0.42764713     0.17800
N2692       N  0.10248736  0.78722801  0.45213478    -0.81300
H2693       H  0.12061812  0.70392601  0.43427712     0.33500
H2694       H  0.14700453  0.71134376  0.43877704     0.37900
H2695       H  0.11434729  0.79708610  0.44604234     0.33400
H2696       H  0.08815974  0.78956768  0.44040875     0.30100
H2697       H  0.03893940  0.73817825  0.42143579     0.33400
H2698       H  0.06035725  0.75240933  0.41403337     0.30100
H2699       H  0.04526675  0.78440010  0.53448811     0.38000
H2700       H  0.07091928  0.77583511  0.54045938     0.33500
C2701       C  0.92000104  0.42991132  0.74208654    -0.20300
C2702       C  0.93086637  0.41821381  0.76104239     0.35900
C2703       C  0.92258157  0.40017113  0.76583964    -0.26300
C2704       C  0.90354250  0.39353519  0.75218488     0.02400
C2705       C  0.89205090  0.40539370  0.73419209     0.27200
C2706       C  0.90024847  0.42341544  0.72953463    -0.25400
N2707       N  0.95070225  0.42425460  0.77482002    -0.82800
H2708       H  0.93147568  0.39106813  0.77966073     0.13000
C2709       C  0.89712549  0.37360630  0.75419479     0.02300
N2710       N  0.87253434  0.39884083  0.71993273    -0.81300
H2711       H  0.89142933  0.43221119  0.71524377     0.17800
C2712       C  0.87576303  0.36868173  0.76379439    -0.26200
C2713       C  0.86745567  0.35042843  0.76060024     0.35800
C2714       C  0.88107599  0.33678587  0.74806315    -0.20200
C2715       C  0.90311335  0.34150888  0.74057434    -0.25500
C2716       C  0.91113397  0.35977698  0.74306885     0.27200
H2717       H  0.86506122  0.37940469  0.77228183     0.13000
N2718       N  0.84485908  0.34611325  0.76843398    -0.82700
H2719       H  0.91378030  0.33107696  0.73127269     0.17800
N2720       N  0.93301310  0.36454778  0.73297182    -0.81300
H2721       H  0.83736051  0.35757392  0.77790032     0.33500
H2722       H  0.83578553  0.34371046  0.75060932     0.37900
H2723       H  0.94125208  0.35273860  0.72555276     0.33400
H2724       H  0.93085553  0.37345739  0.71640125     0.30100
H2725       H  0.86592312  0.40931044  0.70758109     0.33400
H2726       H  0.87759987  0.38810016  0.70693705     0.30100
H2727       H  0.96361284  0.41493816  0.77017063     0.38000
H2728       H  0.94770551  0.42358733  0.79573244     0.33500
C2729       C  0.88649458  0.50772354  0.60908359    -0.20300
C2730       C  0.87558166  0.49170441  0.59889946     0.35900
C2731       C  0.85647283  0.49380959  0.58269500    -0.26300
C2732       C  0.84829904  0.51151201  0.57619570     0.02400
C2733       C  0.85955098  0.52751026  0.58545196     0.27200
C2734       C  0.87858833  0.52546618  0.60188459    -0.25400
N2735       N  0.88395005  0.47340195  0.60495595    -0.82800
H2736       H  0.84778184  0.48159759  0.57516646     0.13000
C2737       C  0.82788342  0.51288065  0.55953389     0.02300
N2738       N  0.85151617  0.54569408  0.57820797    -0.81300
H2739       H  0.88694135  0.53776658  0.60964059     0.17800
C2740       C  0.80803214  0.51950360  0.57132122    -0.26200
C2741       C  0.78779533  0.51934861  0.55672728     0.35800
C2742       C  0.78763371  0.51233512  0.52986087    -0.20200
C2743       C  0.80777939  0.50622899  0.51799270    -0.25500
C2744       C  0.82788684  0.50642819  0.53256522     0.27200
H2745       H  0.80826454  0.52433560  0.59219825     0.13000
N2746       N  0.76739170  0.52534745  0.56957721    -0.82700
H2747       H  0.80781144  0.50111516  0.49725378     0.17800
N2748       N  0.84828267  0.49981840  0.52031992    -0.81300
H2749       H  0.77018243  0.52838141  0.59008851     0.33500
H2750       H  0.76272316  0.53791637  0.56058964     0.37900
H2751       H  0.84538110  0.49533861  0.50040056     0.33400
H2752       H  0.85931690  0.51108704  0.51908290     0.30100
H2753       H  0.86162427  0.55601393  0.58684437     0.33400
H2754       H  0.85308219  0.54702583  0.55713651     0.30100
H2755       H  0.89977922  0.47219236  0.59600621     0.38000
H2756       H  0.87386813  0.46318111  0.59602754     0.33500
C2757       C  0.99365248  0.67904495  0.62457807    -0.20300
C2758       C  0.98441082  0.67096360  0.64841369     0.35900
C2759       C  0.98788727  0.65202104  0.65376272    -0.26300
C2760       C  0.00100114  0.64084014  0.63668161     0.02400
C2761       C  0.01099578  0.64887619  0.61350763     0.27200
C2762       C  0.00722455  0.66783075  0.60771629    -0.25400
N2763       N  0.97120499  0.68179192  0.66706464    -0.82800
H2764       H  0.97987226  0.64579819  0.67129527     0.13000
C2765       C  0.00255796  0.62056326  0.64282764     0.02300
N2766       N  0.02463498  0.63771986  0.59573110    -0.81300
H2767       H  0.01457020  0.67371644  0.58953270     0.17800
C2768       C  0.99601200  0.60756726  0.62304850    -0.26200
C2769       C  0.99320235  0.58865906  0.62954064     0.35800
C2770       C  0.99634877  0.58265863  0.65663665    -0.20200
C2771       C  0.00458964  0.59542136  0.67589407    -0.25500
C2772       C  0.00784572  0.61425422  0.66923591     0.27200
H2773       H  0.99206439  0.61230815  0.60272769     0.13000
N2774       N  0.98683875  0.57560002  0.60878604    -0.82700
H2775       H  0.00753708  0.59091801  0.69658378     0.17800
N2776       N  0.01574148  0.62716781  0.68944218    -0.81300
H2777       H  0.98506573  0.58225875  0.59003839     0.33500
H2778       H  0.00005394  0.56615823  0.60662489     0.37900
H2779       H  0.01860622  0.62039750  0.70790261     0.33400
H2780       H  0.03121944  0.63227004  0.68286149     0.30100
H2781       H  0.03058462  0.64566360  0.57947657     0.33400
H2782       H  0.03866488  0.63341423  0.60676059     0.30100
H2783       H  0.96491543  0.67352355  0.68278005     0.38000
H2784       H  0.98195168  0.69140642  0.67619490     0.33500
C2785       C  0.88702314  0.42472178  0.03098758    -0.20300
C2786       C  0.90930501  0.41933772  0.03688114     0.35900
C2787       C  0.91604180  0.40085370  0.03233493    -0.26300
C2788       C  0.90123532  0.38767595  0.02134838     0.02400
C2789       C  0.87979613  0.39357204  0.01269424     0.27200
C2790       C  0.87285768  0.41203182  0.01770546    -0.25400
N2791       N  0.92482054  0.43253916  0.04825061    -0.82800
H2792       H  0.93256943  0.39647870  0.03879597     0.13000
C2793       C  0.90740419  0.36754625  0.02267868     0.02300
N2794       N  0.86492207  0.38060057  0.99968533    -0.81300
H2795       H  0.85591711  0.41618395  0.01264640     0.17800
C2796       C  0.89313728  0.35533318  0.03660745    -0.26200
C2797       C  0.89968975  0.33704710  0.04247883     0.35800
C2798       C  0.92132565  0.33076407  0.03517200    -0.20200
C2799       C  0.93507937  0.34256452  0.01963534    -0.25500
C2800       C  0.92823627  0.36083105  0.01310026     0.27200
H2801       H  0.87704701  0.36020663  0.04394998     0.13000
N2802       N  0.88424566  0.32492077  0.05599786    -0.82700
H2803       H  0.95152808  0.33780045  0.01342163     0.17800
N2804       N  0.94248392  0.37270540  0.99720495    -0.81300
H2805       H  0.87976281  0.33103928  0.07451641     0.33500
H2806       H  0.86982686  0.32387394  0.04403239     0.37900
H2807       H  0.95718434  0.36571688  0.99174415     0.33400
H2808       H  0.93402254  0.37568669  0.97913071     0.30100
H2809       H  0.84977607  0.38706001  0.99471013     0.33400
H2810       H  0.87236270  0.37657864  0.98135023     0.30100
H2811       H  0.92730555  0.44299199  0.03380666     0.38000
H2812       H  0.94043967  0.42635388  0.05155365     0.33500
C2813       C  0.80580121  0.50184548  0.20076486    -0.20300
C2814       C  0.80521132  0.51853195  0.21602437     0.35900
C2815       C  0.79493565  0.51865048  0.24181735    -0.26300
C2816       C  0.78525869  0.50248268  0.25278957     0.02400
C2817       C  0.78607579  0.48578332  0.23769456     0.27200
C2818       C  0.79604229  0.48570415  0.21177933    -0.25400
N2819       N  0.81452026  0.53538567  0.20507982    -0.82800
H2820       H  0.79411961  0.53152325  0.25328566     0.13000
C2821       C  0.77413721  0.50333836  0.27995313     0.02300
N2822       N  0.77707972  0.46890219  0.24892243    -0.81300
H2823       H  0.79653779  0.47283102  0.20027915     0.17800
C2824       C  0.75165002  0.49781399  0.28266646    -0.26200
C2825       C  0.74048128  0.49898338  0.30780482     0.35800
C2826       C  0.75178518  0.50607710  0.33077722    -0.20200
C2827       C  0.77435473  0.51147264  0.32802778    -0.25500
C2828       C  0.78570136  0.50992346  0.30304939     0.27200
H2829       H  0.74257922  0.49279516  0.26504634     0.13000
N2830       N  0.71749904  0.49340456  0.30967035    -0.82700
H2831       H  0.78336741  0.51662325  0.34560937     0.17800
N2832       N  0.80902078  0.51477534  0.30111384    -0.81300
H2833       H  0.71641322  0.47943644  0.30381374     0.33500
H2834       H  0.70824203  0.50130782  0.29583845     0.37900
H2835       H  0.81508660  0.51935494  0.31990203     0.33400
H2836       H  0.81787149  0.50264591  0.29630139     0.30100
H2837       H  0.77894019  0.45785548  0.23523817     0.33400
H2838       H  0.78662435  0.46555828  0.26604223     0.30100
H2839       H  0.80502336  0.53902618  0.18805005     0.38000
H2840       H  0.81290891  0.54633790  0.21897041     0.33500
C2841       C  0.77988463  0.50753695  0.98904503    -0.20300
C2842       C  0.77906958  0.49701328  0.96473373     0.35900
C2843       C  0.75933026  0.49707919  0.94918052    -0.26300
C2844       C  0.74069651  0.50756412  0.95734569     0.02400
C2845       C  0.74179032  0.51866901  0.98082640     0.27200
C2846       C  0.76129014  0.51849332  0.99647132    -0.25400
N2847       N  0.79811114  0.48631196  0.95596144    -0.82800
H2848       H  0.75834032  0.48881751  0.93076988     0.13000
C2849       C  0.71999201  0.50705943  0.94116881     0.02300
N2850       N  0.72295404  0.52993498  0.98878621    -0.81300
H2851       H  0.76163251  0.52664373  0.01501128     0.17800
C2852       C  0.70043396  0.49980279  0.95287494    -0.26200
C2853       C  0.67985737  0.50066525  0.93914865     0.35800
C2854       C  0.67900195  0.50905135  0.91325710    -0.20200
C2855       C  0.69885933  0.51579847  0.90135587    -0.25500
C2856       C  0.71935582  0.51486025  0.91504409     0.27200
H2857       H  0.70122131  0.49377605  0.97302465     0.13000
N2858       N  0.65990709  0.49340994  0.95161168    -0.82700
H2859       H  0.69842703  0.52184280  0.88120921     0.17800
N2860       N  0.73945384  0.52198580  0.90272014    -0.81300
H2861       H  0.66359837  0.48747962  0.97047224     0.33500
H2862       H  0.64919413  0.50463227  0.95541256     0.37900
H2863       H  0.73612188  0.52707193  0.88324404     0.33400
H2864       H  0.74484794  0.53333355  0.91433102     0.30100
H2865       H  0.72639218  0.53715246  0.00678049     0.33400
H2866       H  0.72056948  0.53998445  0.97372421     0.30100
H2867       H  0.79456029  0.47926182  0.93785847     0.38000
H2868       H  0.81103296  0.49566729  0.95158047     0.33500
C2869       C  0.92303715  0.50163356  0.82068660    -0.20300
C2870       C  0.92391015  0.48495878  0.83600469     0.35900
C2871       C  0.91603371  0.48488870  0.86299220    -0.26300
C2872       C  0.90690537  0.50093466  0.87485598     0.02400
C2873       C  0.90522634  0.51735657  0.85942916     0.27200
C2874       C  0.91337670  0.51757664  0.83260273    -0.25400
N2875       N  0.93244826  0.46809187  0.82409655    -0.82800
H2876       H  0.91702162  0.47225313  0.87491744     0.13000
C2877       C  0.89952840  0.50044258  0.90367480     0.02300
N2878       N  0.89526165  0.53373755  0.87113507    -0.81300
H2879       H  0.91235551  0.53036757  0.82105009     0.17800
C2880       C  0.91195836  0.51010670  0.92323280    -0.26200
C2881       C  0.90566041  0.51010372  0.95080864     0.35800
C2882       C  0.88649710  0.49982882  0.95922656    -0.20200
C2883       C  0.87415721  0.49009737  0.93927209    -0.25500
C2884       C  0.88036328  0.49045393  0.91165699     0.27200
H2885       H  0.92664790  0.51781529  0.91684057     0.13000
N2886       N  0.91881007  0.52049396  0.97005122    -0.82700
H2887       H  0.85937704  0.48232033  0.94509343     0.17800
N2888       N  0.86718803  0.48084736  0.89160133    -0.81300
H2889       H  0.93317849  0.52591429  0.96082773     0.33500
H2890       H  0.90926901  0.53199738  0.97604982     0.37900
H2891       H  0.85360485  0.47411749  0.90072582     0.33400
H2892       H  0.86045729  0.49086140  0.87855278     0.30100
H2893       H  0.89530430  0.54467792  0.85715651     0.33400
H2894       H  0.87845492  0.53070160  0.87518743     0.30100
H2895       H  0.92157021  0.46425613  0.80840050     0.38000
H2896       H  0.93214730  0.45721799  0.83818102     0.33500
C2897       C  0.88297190  0.83156751  0.25131855    -0.20300
C2898       C  0.90487915  0.83753714  0.24443978     0.35900
C2899       C  0.91117395  0.85609873  0.24902330    -0.26300
C2900       C  0.89636603  0.86888895  0.26087813     0.02400
C2901       C  0.87524631  0.86257126  0.27007640     0.27200
C2902       C  0.86875861  0.84394656  0.26524674    -0.25400
N2903       N  0.92052077  0.82484915  0.23209356    -0.82800
H2904       H  0.92739490  0.86084930  0.24198512     0.13000
C2905       C  0.90225539  0.88908249  0.25987851     0.02300
N2906       N  0.86023232  0.87526260  0.28346196    -0.81300
H2907       H  0.85212622  0.83940384  0.27105556     0.17800
C2908       C  0.88800982  0.90118932  0.24576869    -0.26200
C2909       C  0.89468388  0.91937483  0.23934016     0.35800
C2910       C  0.91611722  0.92587377  0.24716343    -0.20200
C2911       C  0.92977997  0.91418663  0.26294930    -0.25500
C2912       C  0.92312628  0.89584078  0.26926054     0.27200
H2913       H  0.87200946  0.89619235  0.23833235     0.13000
N2914       N  0.87968586  0.93106566  0.22438916    -0.82700
H2915       H  0.94616743  0.91902871  0.26924085     0.17800
N2916       N  0.93775362  0.88384619  0.28442477    -0.81300
H2917       H  0.87593438  0.92443426  0.20600735     0.33500
H2918       H  0.86482214  0.93233154  0.23549604     0.37900
H2919       H  0.95253263  0.89081615  0.28958893     0.33400
H2920       H  0.92967534  0.88059492  0.30266260     0.30100
H2921       H  0.84535819  0.86851302  0.28882617     0.33400
H2922       H  0.86785159  0.87944654  0.30159878     0.30100
H2923       H  0.92397837  0.81442409  0.24627682     0.38000
H2924       H  0.93573303  0.83147730  0.22793724     0.33500
C2925       C  0.92484408  0.75446709  0.12089206    -0.20300
C2926       C  0.94604667  0.75993858  0.13080330     0.35900
C2927       C  0.96483946  0.75815842  0.11419600    -0.26300
C2928       C  0.96286191  0.75102957  0.08789808     0.02400
C2929       C  0.94187336  0.74543350  0.07779083     0.27200
C2930       C  0.92297200  0.74703744  0.09456744    -0.25400
N2931       N  0.94868699  0.76699528  0.15786810    -0.82800
H2932       H  0.98107569  0.76251608  0.12176455     0.13000
C2933       C  0.98281314  0.75086145  0.07061561     0.02300
N2934       N  0.93987231  0.73846340  0.05049297    -0.81300
H2935       H  0.90670869  0.74286384  0.08690174     0.17800
C2936       C  0.99336164  0.73396655  0.06457820    -0.26200
C2937       C  0.01263853  0.73353939  0.04825044     0.35800
C2938       C  0.02151007  0.75047177  0.03831387    -0.20200
C2939       C  0.01082714  0.76735099  0.04479768    -0.25500
C2940       C  0.99145545  0.76768523  0.06067202     0.27200
H2941       H  0.98639563  0.72113126  0.07245194     0.13000
N2942       N  0.02279572  0.71603191  0.04127843    -0.82700
H2943       H  0.01752836  0.78038465  0.03729874     0.17800
N2944       N  0.98040778  0.78500404  0.06672524    -0.81300
H2945       H  0.01436269  0.70503199  0.05068280     0.33500
H2946       H  0.02083076  0.71411541  0.02034488     0.37900
H2947       H  0.98901621  0.79615873  0.05796952     0.33400
H2948       H  0.96460334  0.78462733  0.05758125     0.30100
H2949       H  0.92323125  0.73498008  0.04622446     0.33400
H2950       H  0.94415562  0.74927093  0.03727353     0.30100
H2951       H  0.95572296  0.78029565  0.15662670     0.38000
H2952       H  0.95996491  0.75840252  0.16817319     0.33500
C2953       C  0.87978750  0.75656395  0.32747038    -0.20300
C2954       C  0.89012311  0.74105632  0.34005322     0.35900
C2955       C  0.89823111  0.74273151  0.36675512    -0.26300
C2956       C  0.89597579  0.75939638  0.38129473     0.02400
C2957       C  0.88508451  0.77466558  0.36928883     0.27200
C2958       C  0.87711394  0.77312575  0.34248708    -0.25400
N2959       N  0.89213215  0.72360487  0.32589650    -0.82800
H2960       H  0.90632637  0.73096376  0.37638497     0.13000
C2961       C  0.90474890  0.76043242  0.40937796     0.02300
N2962       N  0.88228797  0.79166942  0.38435909    -0.81300
H2963       H  0.86912897  0.78504644  0.33314941     0.17800
C2964       C  0.92466911  0.77010905  0.41457723    -0.26200
C2965       C  0.93417701  0.77042371  0.44078104     0.35800
C2966       C  0.92322960  0.76100078  0.46236747    -0.20200
C2967       C  0.90296948  0.75162316  0.45686385    -0.25500
C2968       C  0.89365401  0.75128698  0.43069305     0.27200
H2969       H  0.93307356  0.77708556  0.39793728     0.13000
N2970       N  0.95500653  0.78000155  0.44524329    -0.82700
H2971       H  0.89417893  0.74453624  0.47308481     0.17800
N2972       N  0.87294947  0.74166520  0.42558986    -0.81300
H2973       H  0.96034899  0.78662000  0.42747747     0.33500
H2974       H  0.96712685  0.76996403  0.44975347     0.37900
H2975       H  0.86692862  0.73551765  0.44339517     0.33400
H2976       H  0.86107568  0.75159562  0.41980197     0.30100
H2977       H  0.87404277  0.80163508  0.37257439     0.33400
H2978       H  0.87181545  0.78881952  0.40087686     0.30100
H2979       H  0.87593203  0.71849843  0.32276625     0.38000
H2980       H  0.90042037  0.71378037  0.33788967     0.33500
C2981       C  0.81981383  0.67608992  0.16064262    -0.20300
C2982       C  0.82241423  0.67043097  0.13322753     0.35900
C2983       C  0.82152088  0.65139235  0.12650359    -0.26300
C2984       C  0.81790597  0.63786454  0.14648289     0.02400
C2985       C  0.81406335  0.64346643  0.17354876     0.27200
C2986       C  0.81504714  0.66250222  0.18037935    -0.25400
N2987       N  0.82600825  0.68401596  0.11230702    -0.82800
H2988       H  0.82427525  0.64701123  0.10567960     0.13000
C2989       C  0.82015425  0.61786832  0.13916600     0.02300
N2990       N  0.80963864  0.62972420  0.19404336    -0.81300
H2991       H  0.81291146  0.66665153  0.20140289     0.17800
C2992       C  0.83893679  0.60808932  0.14839553    -0.26200
C2993       C  0.84269745  0.58951731  0.14076445     0.35800
C2994       C  0.82709695  0.58014470  0.12391120    -0.20200
C2995       C  0.80817474  0.59007158  0.11472917    -0.25500
C2996       C  0.80459148  0.60882056  0.12215226     0.27200
H2997       H  0.85114524  0.61511226  0.16109453     0.13000
N2998       N  0.86286299  0.58054816  0.14947563    -0.82700
H2999       H  0.79607776  0.58320343  0.10172937     0.17800
N3000       N  0.78526848  0.61872786  0.11247877    -0.81300
H3001       H  0.86324122  0.58076548  0.17071658     0.33500
H3002       H  0.87647924  0.58830165  0.14237173     0.37900
H3003       H  0.77551573  0.61016649  0.09999862     0.33400
H3004       H  0.77539555  0.62206961  0.12935803     0.30100
H3005       H  0.80727981  0.63607160  0.21297072     0.33400
H3006       H  0.79449697  0.62324002  0.18907466     0.30100
H3007       H  0.81150652  0.69213631  0.11126110     0.38000
H3008       H  0.82780020  0.67758394  0.09334902     0.33500
C3009       C  0.67345302  0.67794715  0.77937922    -0.20300
C3010       C  0.68776167  0.66282798  0.77345716     0.35900
C3011       C  0.67843417  0.64498342  0.76999613    -0.26300
C3012       C  0.65522490  0.64220503  0.77219054     0.02400
C3013       C  0.64088974  0.65765322  0.77500407     0.27200
C3014       C  0.65015641  0.67537039  0.77877926    -0.25400
N3015       N  0.71164517  0.66537785  0.77275452    -0.82800
H3016       H  0.68936384  0.63304322  0.76765760     0.13000
C3017       C  0.64647132  0.62317752  0.77660156     0.02300
N3018       N  0.61701088  0.65505766  0.77548144    -0.81300
H3019       H  0.63918556  0.68709431  0.78274740     0.17800
C3020       C  0.63695506  0.61919843  0.80196067    -0.26200
C3021       C  0.62945743  0.60127948  0.80823133     0.35800
C3022       C  0.63158350  0.58695816  0.78878004    -0.20200
C3023       C  0.64059358  0.59092964  0.76306354    -0.25500
C3024       C  0.64825665  0.60901606  0.75684614     0.27200
H3025       H  0.63573662  0.63011638  0.81713292     0.13000
N3026       N  0.61978805  0.59747216  0.83441899    -0.82700
H3027       H  0.64223440  0.57984722  0.74822951     0.17800
N3028       N  0.65802494  0.61305182  0.73082918    -0.81300
H3029       H  0.61967388  0.60944891  0.84652486     0.33500
H3030       H  0.60304065  0.59375708  0.83134984     0.37900
H3031       H  0.65815162  0.60112937  0.71861362     0.33400
H3032       H  0.64768682  0.62273756  0.72115848     0.30100
H3033       H  0.60881930  0.66780686  0.77805261     0.33400
H3034       H  0.61226942  0.64997525  0.75640822     0.30100
H3035       H  0.71688396  0.66889697  0.79237334     0.38000
H3036       H  0.71967195  0.65289202  0.76777191     0.33500
C3037       C  0.75008089  0.75056048  0.95461495    -0.20300
C3038       C  0.73893306  0.75703955  0.97818822     0.35900
C3039       C  0.75053310  0.75751554  0.00314297    -0.26300
C3040       C  0.77298611  0.75173289  0.00508205     0.02400
C3041       C  0.78397372  0.74503259  0.98167409     0.27200
C3042       C  0.77245868  0.74451561  0.95686528    -0.25400
N3043       N  0.71576689  0.76245888  0.97707011    -0.82800
H3044       H  0.74198521  0.76233476  0.02127001     0.13000
C3045       C  0.78483765  0.75267330  0.03169796     0.02300
N3046       N  0.80688883  0.73890957  0.98311231    -0.81300
H3047       H  0.78126131  0.73955525  0.93900042     0.17800
C3048       C  0.79516641  0.73664520  0.04210318    -0.26200
C3049       C  0.80711099  0.73704126  0.06675276     0.35800
C3050       C  0.80772931  0.75365332  0.08223556    -0.20200
C3051       C  0.79739212  0.76971662  0.07162276    -0.25500
C3052       C  0.78638104  0.76948974  0.04637383     0.27200
H3053       H  0.79399015  0.72372579  0.03079744     0.13000
N3054       N  0.81808956  0.72050012  0.07623520    -0.82700
H3055       H  0.79805372  0.78263426  0.08299559     0.17800
N3056       N  0.77694368  0.78630643  0.03546043    -0.81300
H3057       H  0.81481552  0.70929374  0.06323832     0.33500
H3058       H  0.83535068  0.72283650  0.07506207     0.37900
H3059       H  0.77945530  0.79746662  0.04878575     0.33400
H3060       H  0.78570639  0.78948139  0.01765565     0.30100
H3061       H  0.81240582  0.73407716  0.96420159     0.33400
H3062       H  0.81674915  0.75047193  0.98796095     0.30100
H3063       H  0.71492890  0.77510089  0.96665898     0.38000
H3064       H  0.70963219  0.76514255  0.99659615     0.33500
C3065       C  0.78915384  0.75403140  0.75300724    -0.20300
C3066       C  0.79087476  0.74479067  0.72773621     0.35900
C3067       C  0.81116421  0.74534751  0.71335632    -0.26300
C3068       C  0.82994269  0.75455856  0.72405571     0.02400
C3069       C  0.82846924  0.76337473  0.74955295     0.27200
C3070       C  0.80806773  0.76326720  0.76350619    -0.25400
N3071       N  0.77213469  0.73504005  0.71640472    -0.82800
H3072       H  0.81222875  0.73864421  0.69364458     0.13000
C3073       C  0.85090852  0.75533114  0.70809987     0.02300
N3074       N  0.84781716  0.77216236  0.76135655    -0.81300
H3075       H  0.80718771  0.77011046  0.78311581     0.17800
C3076       C  0.86005091  0.77275139  0.70170831    -0.26200
C3077       C  0.87951083  0.77420735  0.68593805     0.35800
C3078       C  0.88967622  0.75786214  0.67573554    -0.20200
C3079       C  0.88094583  0.74040089  0.68293943    -0.25500
C3080       C  0.86167231  0.73897353  0.69915240     0.27200
H3081       H  0.85179790  0.78528115  0.70884236     0.13000
N3082       N  0.88896669  0.79219636  0.68024777    -0.82700
H3083       H  0.88877902  0.72784475  0.67524716     0.17800
N3084       N  0.85286482  0.72103246  0.70640250    -0.81300
H3085       H  0.87933259  0.80275282  0.68908833     0.33500
H3086       H  0.90469728  0.79274328  0.68955663     0.37900
H3087       H  0.86265453  0.71040615  0.69801012     0.33400
H3088       H  0.85409036  0.71974340  0.72750937     0.30100
H3089       H  0.84386809  0.77810205  0.78017780     0.33400
H3090       H  0.85965873  0.76175818  0.76511975     0.30100
H3091       H  0.77684755  0.72116810  0.71339565     0.38000
H3092       H  0.76855495  0.74081896  0.69741405     0.33500
C3093       C  0.67477207  0.08876205  0.98983587    -0.20300
C3094       C  0.67574883  0.10295773  0.97001218     0.35900
C3095       C  0.66849571  0.12100878  0.97658334    -0.26300
C3096       C  0.66035314  0.12537997  0.00257505     0.02400
C3097       C  0.65959037  0.11131867  0.02256047     0.27200
C3098       C  0.66697445  0.09314198  0.01604966    -0.25400
N3099       N  0.68422502  0.09899874  0.94323830    -0.82800
H3100       H  0.66900308  0.13177843  0.96120359     0.13000
C3101       C  0.65242956  0.14477346  0.00778732     0.02300
N3102       N  0.65128757  0.11554595  0.04927650    -0.81300
H3103       H  0.66616561  0.08227347  0.03124731     0.17800
C3104       C  0.62970325  0.14816030  0.01343789    -0.26200
C3105       C  0.62077315  0.16637429  0.01255566     0.35800
C3106       C  0.63490162  0.18145450  0.00574365    -0.20200
C3107       C  0.65802799  0.17812260  0.00272200    -0.25500
C3108       C  0.66688728  0.16000929  0.00357857     0.27200
H3109       H  0.61862831  0.13644604  0.01682382     0.13000
N3110       N  0.59718755  0.16934182  0.01640879    -0.82700
H3111       H  0.66908025  0.18963111  0.99793771     0.17800
N3112       N  0.69036349  0.15688937  0.99880032    -0.81300
H3113       H  0.58897922  0.15669361  0.01972291     0.33500
H3114       H  0.59527192  0.17710900  0.03424391     0.37900
H3115       H  0.69869527  0.16949697  0.99559750     0.33400
H3116       H  0.69710924  0.15111655  0.01647984     0.30100
H3117       H  0.65168275  0.10368549  0.06154167     0.33400
H3118       H  0.66223138  0.12519105  0.05806523     0.30100
H3119       H  0.70111453  0.09537632  0.94519501     0.38000
H3120       H  0.68370583  0.11089084  0.93104281     0.33500
C3121       C  0.75256116  0.00609136  0.83437618    -0.20300
C3122       C  0.75783142  0.98913834  0.82117455     0.35900
C3123       C  0.77001691  0.98947857  0.79660123    -0.26300
C3124       C  0.77648111  0.00636322  0.78466362     0.02400
C3125       C  0.77049562  0.02326772  0.79720352     0.27200
C3126       C  0.75891845  0.02296334  0.82208156    -0.25400
N3127       N  0.75140405  0.97166742  0.83302558    -0.82800
H3128       H  0.77420676  0.97654176  0.78644323     0.13000
C3129       C  0.78753597  0.00626699  0.75766145     0.02300
N3130       N  0.77570052  0.04065855  0.78423489    -0.81300
H3131       H  0.75466436  0.03602097  0.83187512     0.17800
C3132       C  0.77396856  0.00645419  0.73451942    -0.26200
C3133       C  0.78333949  0.00677021  0.70835652     0.35800
C3134       C  0.80690314  0.00673120  0.70519326    -0.20200
C3135       C  0.82056157  0.00679710  0.72846585    -0.25500
C3136       C  0.81106778  0.00645411  0.75476114     0.27200
H3137       H  0.75591838  0.00647076  0.73694975     0.13000
N3138       N  0.76897732  0.00733027  0.68492175    -0.82700
H3139       H  0.83861166  0.00659336  0.72610235     0.17800
N3140       N  0.82514817  0.00582112  0.77843007    -0.81300
H3141       H  0.75212271  0.00711886  0.69072060     0.33500
H3142       H  0.77167651  0.02005915  0.67519265     0.37900
H3143       H  0.84204042  0.00569622  0.77278431     0.33400
H3144       H  0.82259321  0.01809520  0.78943323     0.30100
H3145       H  0.76965079  0.05182701  0.79575121     0.33400
H3146       H  0.79312599  0.04200936  0.78370159     0.30100
H3147       H  0.73396652  0.97067448  0.83169371     0.38000
H3148       H  0.75776963  0.96057934  0.82159337     0.33500
C3149       C  0.87681438  0.00473634  0.11952405    -0.20300
C3150       C  0.87579391  0.01251388  0.09323600     0.35900
C3151       C  0.85474423  0.01527945  0.08107952    -0.26300
C3152       C  0.83499463  0.01031724  0.09475118     0.02400
C3153       C  0.83602801  0.00328064  0.12133603     0.27200
C3154       C  0.85693148  0.00037384  0.13335097    -0.25400
N3155       N  0.89600604  0.01693660  0.07871545    -0.82800
H3156       H  0.85373057  0.02052883  0.06048458     0.13000
C3157       C  0.81366298  0.00998029  0.07976076     0.02300
N3158       N  0.81577711  0.99890693  0.13581101    -0.81300
H3159       H  0.85770183  0.99484825  0.15380940     0.17800
C3160       C  0.80407897  0.99262814  0.07400762    -0.26200
C3161       C  0.78476176  0.99119527  0.05803180     0.35800
C3162       C  0.77512167  0.00751256  0.04718805    -0.20200
C3163       C  0.78408834  0.02498329  0.05424955    -0.25500
C3164       C  0.80333953  0.02636963  0.07050231     0.27200
H3165       H  0.81202157  0.98011338  0.08162237     0.13000
N3166       N  0.77501233  0.97326205  0.05267755    -0.82700
H3167       H  0.77661737  0.03755414  0.04618006     0.17800
N3168       N  0.81266411  0.04423570  0.07724715    -0.81300
H3169       H  0.78432433  0.96272359  0.06198370     0.33500
H3170       H  0.75916125  0.97308604  0.06173347     0.37900
H3171       H  0.80308177  0.05490428  0.06868893     0.33400
H3172       H  0.81153880  0.04584598  0.09832786     0.30100
H3173       H  0.81945611  0.99367198  0.15511132     0.33400
H3174       H  0.80705974  0.01136895  0.13881021     0.30100
H3175       H  0.90455064  0.00446254  0.07513911     0.38000
H3176       H  0.89224344  0.02254584  0.05966423     0.33500
C3177       C  0.73041231  0.83035937  0.87938902    -0.20300
C3178       C  0.74726352  0.84282817  0.87021752     0.35900
C3179       C  0.74752322  0.86136953  0.87989481    -0.26300
C3180       C  0.73144587  0.86784761  0.89852372     0.02400
C3181       C  0.71523787  0.85527925  0.90842522     0.27200
C3182       C  0.71475797  0.83691132  0.89861680    -0.25400
N3183       N  0.76407706  0.83680103  0.85120649    -0.82800
H3184       H  0.75994069  0.87100472  0.87217747     0.13000
C3185       C  0.73059000  0.88803518  0.90611358     0.02300
N3186       N  0.69925451  0.86123997  0.92852508    -0.81300
H3187       H  0.70183778  0.82768739  0.90613371     0.17800
C3188       C  0.71042800  0.89775276  0.90247815    -0.26200
C3189       C  0.70843270  0.91661453  0.90940509     0.35800
C3190       C  0.72709684  0.92647427  0.91959310    -0.20200
C3191       C  0.74733995  0.91676917  0.92351519    -0.25500
C3192       C  0.74926768  0.89764712  0.91691469     0.27200
H3193       H  0.69596121  0.89060564  0.89420526     0.13000
N3194       N  0.68709684  0.92554616  0.90677864    -0.82700
H3195       H  0.76172403  0.92414589  0.93154797     0.17800
N3196       N  0.77000180  0.88794804  0.92135053    -0.81300
H3197       H  0.67556466  0.91834949  0.91882521     0.33500
H3198       H  0.68198778  0.92436996  0.88652855     0.37900
H3199       H  0.78207882  0.89696529  0.92933796     0.33400
H3200       H  0.76709160  0.87777498  0.93609823     0.30100
H3201       H  0.68834116  0.85040318  0.93358936     0.33400
H3202       H  0.70815327  0.86454309  0.94618243     0.30100
H3203       H  0.75624605  0.83509586  0.83237087     0.38000
H3204       H  0.77616209  0.84716289  0.84844524     0.33500
C3205       C  0.63325443  0.67742557  0.49051840    -0.20300
C3206       C  0.63456751  0.67063199  0.51748491     0.35900
C3207       C  0.64276942  0.65245831  0.52210052    -0.26300
C3208       C  0.64939132  0.64107736  0.50034060     0.02400
C3209       C  0.64808113  0.64781397  0.47359835     0.27200
C3210       C  0.63999690  0.66577736  0.46898753    -0.25400
N3211       N  0.62808174  0.68217818  0.54002221    -0.82800
H3212       H  0.64371248  0.64704741  0.54260179     0.13000
C3213       C  0.65644072  0.62160451  0.50478787     0.02300
N3214       N  0.65470970  0.63619154  0.45113488    -0.81300
H3215       H  0.63885750  0.67066032  0.44821560     0.17800
C3216       C  0.64086038  0.60753471  0.49933196    -0.26200
C3217       C  0.64777274  0.58905317  0.49560219     0.35800
C3218       C  0.67079076  0.58461817  0.49725957    -0.20200
C3219       C  0.68609989  0.59839701  0.50542236    -0.25500
C3220       C  0.67913646  0.61698690  0.50893200     0.27200
H3221       H  0.62343089  0.61121728  0.49628842     0.13000
N3222       N  0.63163008  0.57486978  0.48912369    -0.82700
H3223       H  0.70372587  0.59495784  0.50704199     0.17800
N3224       N  0.69510748  0.63130223  0.51538775    -0.81300
H3225       H  0.61546545  0.58045999  0.48844095     0.33500
H3226       H  0.63174989  0.56521196  0.50498659     0.37900
H3227       H  0.71106294  0.62556741  0.51798046     0.33400
H3228       H  0.69615314  0.64024984  0.49870943     0.30100
H3229       H  0.65229734  0.64307862  0.43266915     0.33400
H3230       H  0.67192837  0.63379557  0.45284173     0.30100
H3231       H  0.61066331  0.68350549  0.53936115     0.38000
H3232       H  0.63170188  0.67555461  0.55840458     0.33500
C3233       C  0.76854721  0.75561859  0.28505512    -0.20300
C3234       C  0.74804120  0.75405002  0.27088281     0.35900
C3235       C  0.72796667  0.75464685  0.28536933    -0.26300
C3236       C  0.72808531  0.75713025  0.31345827     0.02400
C3237       C  0.74838107  0.75954312  0.32761474     0.27200
C3238       C  0.76863668  0.75884388  0.31313670    -0.25400
N3239       N  0.74773311  0.75198185  0.24179571    -0.82800
H3240       H  0.71214563  0.75295595  0.27483312     0.13000
C3241       C  0.70675033  0.75580837  0.32785485     0.02300
N3242       N  0.74826291  0.76214995  0.35658480    -0.81300
H3243       H  0.78444104  0.76029722  0.32375921     0.17800
C3244       C  0.69981467  0.73832074  0.33685392    -0.26200
C3245       C  0.67952946  0.73621643  0.35071152     0.35800
C3246       C  0.66633757  0.75216041  0.35626576    -0.20200
C3247       C  0.67286792  0.76952872  0.34570248    -0.25500
C3248       C  0.69299179  0.77146671  0.33136376     0.27200
H3249       H  0.71034012  0.72629593  0.33303744     0.13000
N3250       N  0.67246739  0.71802817  0.35937485    -0.82700
H3251       H  0.66280183  0.78179256  0.34958317     0.17800
N3252       N  0.69958506  0.78919050  0.32044525    -0.81300
H3253       H  0.68428641  0.70793999  0.35393792     0.33500
H3254       H  0.65776280  0.71479247  0.34883743     0.37900
H3255       H  0.68739187  0.79926514  0.32454004     0.33400
H3256       H  0.71412698  0.79341806  0.33054083     0.30100
H3257       H  0.76463122  0.76346825  0.36389988     0.33400
H3258       H  0.74022271  0.77477621  0.36066608     0.30100
H3259       H  0.75420181  0.76422283  0.23343650     0.38000
H3260       H  0.73129878  0.75076417  0.23465915     0.33500
C3261       C  0.67508354  0.75108274  0.71093787    -0.20300
C3262       C  0.65272818  0.75556824  0.70390212     0.35900
C3263       C  0.64623953  0.75549592  0.67641133    -0.26300
C3264       C  0.66135267  0.75066315  0.65570458     0.02400
C3265       C  0.68347935  0.74565412  0.66270267     0.27200
C3266       C  0.69009383  0.74593118  0.69016801    -0.25400
N3267       N  0.63657902  0.75996790  0.72463509    -0.82800
H3268       H  0.62925678  0.75934153  0.67104683     0.13000
C3269       C  0.65377704  0.75122724  0.62681987     0.02300
N3270       N  0.69914476  0.74030747  0.64189248    -0.81300
H3271       H  0.70719668  0.74232882  0.69532727     0.17800
C3272       C  0.66536703  0.76232256  0.60804987    -0.26200
C3273       C  0.65856406  0.76351254  0.58069352     0.35800
C3274       C  0.63924178  0.75367480  0.57191861    -0.20200
C3275       C  0.62763694  0.74266407  0.59097458    -0.25500
C3276       C  0.63479957  0.74117934  0.61808570     0.27200
H3277       H  0.67984633  0.77014576  0.61483850     0.13000
N3278       N  0.67133694  0.77462362  0.56199158    -0.82700
H3279       H  0.61284758  0.73503148  0.58476020     0.17800
N3280       N  0.62295455  0.72935751  0.63675481    -0.81300
H3281       H  0.68444771  0.78143186  0.57199272     0.33500
H3282       H  0.67882336  0.76554015  0.54805832     0.37900
H3283       H  0.60924864  0.72305077  0.62724018     0.33400
H3284       H  0.63382775  0.71863511  0.64241072     0.30100
H3285       H  0.71475216  0.73716256  0.65036105     0.33400
H3286       H  0.69321480  0.72804727  0.63295843     0.30100
H3287       H  0.63422696  0.74799791  0.73634702     0.38000
H3288       H  0.62102881  0.76312068  0.71601821     0.33500
C3289       C  0.67054788  0.18001873  0.27944703    -0.20300
C3290       C  0.68493620  0.16466404  0.27521904     0.35900
C3291       C  0.67562481  0.14681381  0.27137156    -0.26300
C3292       C  0.65234425  0.14412105  0.27201737     0.02400
C3293       C  0.63804111  0.15966627  0.27371790     0.27200
C3294       C  0.64727514  0.17745815  0.27753200    -0.25400
N3295       N  0.70881915  0.16697806  0.27690101    -0.82800
H3296       H  0.68653413  0.13478078  0.27020099     0.13000
C3297       C  0.64341892  0.12520801  0.27730320     0.02300
N3298       N  0.61416236  0.15709788  0.27321256    -0.81300
H3299       H  0.63623831  0.18926964  0.28051840     0.17800
C3300       C  0.63585044  0.12139678  0.30363636    -0.26200
C3301       C  0.62837607  0.10361647  0.31087522     0.35800
C3302       C  0.62868566  0.08914070  0.29140658    -0.20200
C3303       C  0.63556601  0.09304814  0.26466572    -0.25500
C3304       C  0.64305218  0.11103891  0.25744182     0.27200
H3305       H  0.63603718  0.13239061  0.31875990     0.13000
N3306       N  0.62032793  0.10020833  0.33797484    -0.82700
H3307       H  0.63562610  0.08198282  0.24967045     0.17800
N3308       N  0.65041790  0.11495670  0.23025423    -0.81300
H3309       H  0.62132837  0.11227146  0.34983482     0.33500
H3310       H  0.60333003  0.09681933  0.33656558     0.37900
H3311       H  0.64910861  0.10304968  0.21810434     0.33400
H3312       H  0.63944107  0.12480344  0.22207021     0.30100
H3313       H  0.60594234  0.16989049  0.27507231     0.33400
H3314       H  0.60997935  0.15177895  0.25408220     0.30100
H3315       H  0.71270500  0.17075857  0.29688241     0.38000
H3316       H  0.71696159  0.15433621  0.27320262     0.33500
C3317       C  0.77026891  0.00514702  0.50020534    -0.20300
C3318       C  0.74909721  0.00699758  0.51284948     0.35900
C3319       C  0.72972111  0.00717513  0.49687059    -0.26300
C3320       C  0.73108388  0.00560935  0.46863857     0.02400
C3321       C  0.75206923  0.00328957  0.45590879     0.27200
C3322       C  0.77159945  0.00293725  0.47192523    -0.25400
N3323       N  0.74738643  0.00872546  0.54191190    -0.82800
H3324       H  0.71346314  0.00889831  0.50638367     0.13000
C3325       C  0.71033055  0.00769567  0.45279063     0.02300
N3326       N  0.75340870  0.00168817  0.42684030    -0.81300
H3327       H  0.78786051  0.00147181  0.46234471     0.17800
C3328       C  0.70504730  0.02521897  0.44230057    -0.26200
C3329       C  0.68499913  0.02818264  0.42807471     0.35800
C3330       C  0.67006146  0.01309151  0.42394946    -0.20200
C3331       C  0.67517324  0.99568608  0.43552562    -0.25500
C3332       C  0.69521129  0.99284219  0.44983037     0.27200
H3333       H  0.71659902  0.03666206  0.44545007     0.13000
N3334       N  0.67987222  0.04642799  0.41784266    -0.82700
H3335       H  0.66393324  0.98402403  0.43261515     0.17800
N3336       N  0.70038617  0.97493423  0.46119451    -0.81300
H3337       H  0.69277049  0.05579058  0.42232519     0.33500
H3338       H  0.66565473  0.05119563  0.42814928     0.37900
H3339       H  0.68739802  0.96551045  0.45742842     0.33400
H3340       H  0.71450774  0.96980802  0.45106414     0.30100
H3341       H  0.77009353  0.00031073  0.42066265     0.33400
H3342       H  0.74527825  0.98937251  0.42125857     0.30100
H3343       H  0.75301727  0.99624844  0.55040847     0.38000
H3344       H  0.73067141  0.01028512  0.54787413     0.33500
C3345       C  0.66524394  0.01205290  0.07190911    -0.20300
C3346       C  0.64436762  0.00413709  0.07940326     0.35900
C3347       C  0.63776970  0.00426363  0.10686315    -0.26300
C3348       C  0.65134781  0.01227423  0.12696170     0.02400
C3349       C  0.67194086  0.02040777  0.11955513     0.27200
C3350       C  0.67866827  0.02019155  0.09220822    -0.25400
N3351       N  0.62985082  0.99609358  0.05924360    -0.82800
H3352       H  0.62196636  0.99800775  0.11269948     0.13000
C3353       C  0.64398899  0.01186753  0.15579815     0.02300
N3354       N  0.68595570  0.02884803  0.13989418    -0.81300
H3355       H  0.69469665  0.02622844  0.08683502     0.17800
C3356       C  0.65739389  0.00282164  0.17504374    -0.26200
C3357       C  0.65152433  0.00254981  0.20270853     0.35800
C3358       C  0.63147822  0.01135342  0.21137085    -0.20200
C3359       C  0.61792901  0.02019843  0.19181736    -0.25500
C3360       C  0.62401670  0.02060484  0.16420878     0.27200
H3361       H  0.67268313  0.99605793  0.16840431     0.13000
N3362       N  0.66606420  0.99355789  0.22191675    -0.82700
H3363       H  0.60246584  0.02686025  0.19803796     0.17800
N3364       N  0.61013175  0.03001454  0.14471270    -0.81300
H3365       H  0.67962934  0.98728379  0.21204393     0.33500
H3366       H  0.67278320  0.00391019  0.23445523     0.37900
H3367       H  0.59595605  0.03564594  0.15413528     0.33400
H3368       H  0.61930973  0.04122843  0.13703000     0.30100
H3369       H  0.70066201  0.03403536  0.13118686     0.33400
H3370       H  0.67730121  0.04028859  0.14782582     0.30100
H3371       H  0.62444482  0.00687263  0.04660151     0.38000
H3372       H  0.61547430  0.99053271  0.06826653     0.33500
C3373       C  0.57285929  0.93088713  0.37335934    -0.20300
C3374       C  0.55223542  0.92128485  0.37132675     0.35900
C3375       C  0.55088689  0.90262824  0.38003239    -0.26300
C3376       C  0.56960785  0.89356395  0.39099616     0.02400
C3377       C  0.59008994  0.90313120  0.39328544     0.27200
C3378       C  0.59152043  0.92164077  0.38441396    -0.25400
N3379       N  0.53272299  0.93052964  0.36085005    -0.82800
H3380       H  0.53523103  0.89509174  0.37823928     0.13000
C3381       C  0.56823746  0.87363198  0.39832100     0.02300
N3382       N  0.60948283  0.89383907  0.40406858    -0.81300
H3383       H  0.60742525  0.92884173  0.38589943     0.17800
C3384       C  0.57360128  0.86037162  0.37853203    -0.26200
C3385       C  0.57473247  0.84135521  0.38492871     0.35800
C3386       C  0.57103581  0.83550773  0.41210270    -0.20200
C3387       C  0.56465048  0.84886063  0.43161704    -0.25500
C3388       C  0.56313238  0.86786767  0.42494809     0.27200
H3389       H  0.57721351  0.86496119  0.35802226     0.13000
N3390       N  0.57970349  0.82805258  0.36389017    -0.82700
H3391       H  0.56152412  0.84457733  0.45237030     0.17800
N3392       N  0.55652702  0.88132690  0.44507634    -0.81300
H3393       H  0.58226202  0.83470256  0.34526356     0.33500
H3394       H  0.56558897  0.81958839  0.36148369     0.37900
H3395       H  0.55302755  0.87477590  0.46355225     0.33400
H3396       H  0.57013331  0.89015638  0.44859796     0.30100
H3397       H  0.62339246  0.90268326  0.40380196     0.33400
H3398       H  0.60629372  0.89083673  0.42447881     0.30100
H3399       H  0.52866897  0.94128982  0.37432424     0.38000
H3400       H  0.51899947  0.92148533  0.36062419     0.33500
C3401       C  0.49969237  0.00038083  0.58285740    -0.20300
C3402       C  0.51062320  0.98494828  0.57076608     0.35900
C3403       C  0.52101686  0.98702454  0.54536153    -0.26300
C3404       C  0.52108569  0.00418491  0.53188084     0.02400
C3405       C  0.51038411  0.01964626  0.54399510     0.27200
C3406       C  0.49950872  0.01750607  0.56915013    -0.25400
N3407       N  0.51093956  0.96715964  0.58410567    -0.82800
H3408       H  0.52893787  0.97510964  0.53582838     0.13000
C3409       C  0.53188033  0.00551615  0.50472086     0.02300
N3410       N  0.51098558  0.03752422  0.53094874    -0.81300
H3411       H  0.49145987  0.02942789  0.57850161     0.17800
C3412       C  0.51913860  0.01158051  0.48255625    -0.26200
C3413       C  0.52832403  0.01239508  0.45631024     0.35800
C3414       C  0.55098887  0.00716280  0.45208699    -0.20200
C3415       C  0.56362684  0.00085544  0.47431642    -0.25500
C3416       C  0.55436314  0.00009485  0.50059315     0.27200
H3417       H  0.50173953  0.01534103  0.48568876     0.13000
N3418       N  0.51451234  0.01815896  0.43391905    -0.82700
H3419       H  0.58097061  0.99690282  0.47131603     0.17800
N3420       N  0.56776403  0.99405555  0.52318204    -0.81300
H3421       H  0.49848391  0.02186206  0.44060661     0.33500
H3422       H  0.51249893  0.00665597  0.42110080     0.37900
H3423       H  0.58391330  0.99051816  0.51674941     0.33400
H3424       H  0.56945797  0.00534416  0.53646565     0.30100
H3425       H  0.50238743  0.04743544  0.54253998     0.33400
H3426       H  0.52771806  0.04180930  0.53026664     0.30100
H3427       H  0.49444560  0.96228980  0.58484640     0.38000
H3428       H  0.52007410  0.95744918  0.57276264     0.33500
C3429       C  0.63327153  0.01011189  0.86297873    -0.20300
C3430       C  0.63116398  0.99789206  0.84055456     0.35900
C3431       C  0.61062507  0.99694644  0.82662906    -0.26300
C3432       C  0.59242282  0.00797824  0.83466003     0.02400
C3433       C  0.59442855  0.02017681  0.85679623     0.27200
C3434       C  0.61473668  0.02104314  0.87082092    -0.25400
N3435       N  0.64978063  0.98668937  0.83182087    -0.82800
H3436       H  0.60882876  0.98777894  0.80924829     0.13000
C3437       C  0.57167483  0.00763323  0.81868210     0.02300
N3438       N  0.57579109  0.03161893  0.86490571    -0.81300
H3439       H  0.61591774  0.03023972  0.88822937     0.17800
C3440       C  0.55347537  0.99698185  0.82762253    -0.26200
C3441       C  0.53320823  0.99686334  0.81310995     0.35800
C3442       C  0.53139166  0.00756179  0.78910771    -0.20200
C3443       C  0.54972199  0.01849299  0.78070857    -0.25500
C3444       C  0.56979161  0.01866414  0.79531027     0.27200
H3445       H  0.55511619  0.98882881  0.84601678     0.13000
N3446       N  0.51458736  0.98602087  0.82271591    -0.82700
H3447       H  0.54865873  0.02668231  0.76229732     0.17800
N3448       N  0.58840175  0.02982266  0.78639282    -0.81300
H3449       H  0.51887748  0.97882052  0.84040615     0.33500
H3450       H  0.50180161  0.99528550  0.82805564     0.37900
H3451       H  0.58440835  0.03689818  0.76849321     0.33400
H3452       H  0.59128386  0.04000789  0.80118669     0.30100
H3453       H  0.57992863  0.03964289  0.88193019     0.33400
H3454       H  0.57258151  0.04098614  0.84915256     0.30100
H3455       H  0.66227839  0.99571393  0.82491062     0.38000
H3456       H  0.64526073  0.97835451  0.81526363     0.33500
C3457       C  0.37901129  0.99557885  0.61917561    -0.20300
C3458       C  0.35826332  0.98877566  0.62880631     0.35900
C3459       C  0.33908414  0.99063056  0.61279091    -0.26300
C3460       C  0.34018701  0.99917042  0.58733867     0.02400
C3461       C  0.36079621  0.00585294  0.57741060     0.27200
C3462       C  0.38004098  0.00414316  0.59357307    -0.25400
N3463       N  0.35638895  0.98050006  0.65517063    -0.82800
H3464       H  0.32317618  0.98550765  0.62034808     0.13000
C3465       C  0.31963650  0.00057576  0.57100284     0.02300
N3466       N  0.36205993  0.01417500  0.55091303    -0.81300
H3467       H  0.39591717  0.00933772  0.58605299     0.17800
C3468       C  0.31031656  0.01811980  0.56592660    -0.26200
C3469       C  0.29126664  0.01998097  0.54942061     0.35800
C3470       C  0.28127996  0.00385743  0.53826567    -0.20200
C3471       C  0.29037093  0.98626954  0.54418891    -0.25500
C3472       C  0.30958898  0.98448620  0.56023433     0.27200
H3473       H  0.31825288  0.03038876  0.57441591     0.13000
N3474       N  0.28261487  0.03814710  0.54320227    -0.82700
H3475       H  0.28271740  0.97386004  0.53575506     0.17800
N3476       N  0.31926165  0.96647339  0.56519179    -0.81300
H3477       H  0.29177340  0.04844448  0.55333102     0.33500
H3478       H  0.28504122  0.04039803  0.52242132     0.37900
H3479       H  0.30977282  0.95603859  0.55584519     0.33400
H3480       H  0.33504324  0.96621900  0.55595484     0.30100
H3481       H  0.37843990  0.01846006  0.54671520     0.33400
H3482       H  0.35813844  0.00387028  0.53665106     0.30100
H3483       H  0.35001339  0.96704049  0.65278503     0.38000
H3484       H  0.34485157  0.98823320  0.66652515     0.33500
C3485       C  0.50867257  0.25578394  0.70109353    -0.20300
C3486       C  0.51998539  0.27172579  0.71127895     0.35900
C3487       C  0.53049554  0.27096630  0.73675234    -0.26300
C3488       C  0.53030263  0.25469048  0.75230494     0.02400
C3489       C  0.51944381  0.23867209  0.74210020     0.27200
C3490       C  0.50852490  0.23944958  0.71678040    -0.25400
N3491       N  0.52050863  0.28878262  0.69604520    -0.82800
H3492       H  0.53849395  0.28332945  0.74484838     0.13000
C3493       C  0.54036848  0.25505088  0.77992520     0.02300
N3494       N  0.51971852  0.22165258  0.75741720    -0.81300
H3495       H  0.50023799  0.22711426  0.70904083     0.17800
C3496       C  0.52688082  0.25038834  0.80216834    -0.26200
C3497       C  0.53524665  0.25098809  0.82875513     0.35800
C3498       C  0.55783894  0.25621953  0.83330022    -0.20200
C3499       C  0.57117138  0.26145527  0.81108486    -0.25500
C3500       C  0.56270443  0.26082167  0.78440077     0.27200
H3501       H  0.50954396  0.24655508  0.79876818     0.13000
N3502       N  0.52070800  0.24659707  0.85116727    -0.82700
H3503       H  0.58843994  0.26549694  0.81445281     0.17800
N3504       N  0.57677668  0.26572728  0.76181141    -0.81300
H3505       H  0.50483656  0.24263742  0.84427492     0.33500
H3506       H  0.51848022  0.25881071  0.86243374     0.37900
H3507       H  0.59265912  0.26977105  0.76855775     0.33400
H3508       H  0.57902951  0.25376027  0.74999827     0.30100
H3509       H  0.51100808  0.21116987  0.74711523     0.33400
H3510       H  0.53637983  0.21725409  0.75876833     0.30100
H3511       H  0.50413438  0.29391915  0.69525358     0.38000
H3512       H  0.53009597  0.29887743  0.70602332     0.33500
C3513       C  0.52645753  0.25012176  0.48666067    -0.20300
C3514       C  0.53158081  0.26608779  0.47088886     0.35900
C3515       C  0.55146752  0.26643612  0.45565166    -0.26300
C3516       C  0.56600223  0.25119230  0.45556903     0.02400
C3517       C  0.56020457  0.23480625  0.46934558     0.27200
C3518       C  0.54053633  0.23442084  0.48481498    -0.25400
N3519       N  0.51719887  0.28213444  0.47110222    -0.82800
H3520       H  0.55595098  0.27878232  0.44425785     0.13000
C3521       C  0.58742115  0.25242517  0.44100997     0.02300
N3522       N  0.57461755  0.21878600  0.46796228    -0.81300
H3523       H  0.53661437  0.22193345  0.49616250     0.17800
C3524       C  0.60736637  0.25395152  0.45595635    -0.26200
C3525       C  0.62825923  0.25347382  0.44283258     0.35800
C3526       C  0.62888399  0.25134106  0.41441704    -0.20200
C3527       C  0.60884673  0.25041187  0.39952381    -0.25500
C3528       C  0.58806125  0.25095316  0.41257255     0.27200
H3529       H  0.60656360  0.25510913  0.47789783     0.13000
N3530       N  0.64869696  0.25460896  0.45817869    -0.82700
H3531       H  0.60945727  0.24910151  0.37757937     0.17800
N3532       N  0.56763076  0.24972190  0.39719740    -0.81300
H3533       H  0.64521327  0.25619017  0.47888278     0.33500
H3534       H  0.65705123  0.24189786  0.45602907     0.37900
H3535       H  0.57108684  0.24890899  0.37639321     0.33400
H3536       H  0.55973299  0.23725085  0.40246479     0.30100
H3537       H  0.56805447  0.20785656  0.47948297     0.33400
H3538       H  0.57484069  0.21421296  0.44777482     0.30100
H3539       H  0.50227106  0.27836109  0.46144515     0.38000
H3540       H  0.52409611  0.29290992  0.45955588     0.33500
C3541       C  0.48472922  0.07713651  0.65324567    -0.20300
C3542       C  0.47737074  0.08389665  0.62771207     0.35900
C3543       C  0.48023701  0.10287788  0.62121775    -0.26300
C3544       C  0.49086021  0.11525299  0.63923276     0.02400
C3545       C  0.49963846  0.10822640  0.66380356     0.27200
C3546       C  0.49634597  0.08940899  0.67059037    -0.25400
N3547       N  0.46685879  0.07159377  0.60850865    -0.82800
H3548       H  0.47354318  0.10815709  0.60228540     0.13000
C3549       C  0.49109579  0.13570093  0.63327219     0.02300
N3550       N  0.51158804  0.12033793  0.68203408    -0.81300
H3551       H  0.50243594  0.08447042  0.69000999     0.17800
C3552       C  0.48297226  0.14811317  0.65302857    -0.26200
C3553       C  0.48215424  0.16741445  0.64845279     0.35800
C3554       C  0.48837550  0.17462281  0.62275065    -0.20200
C3555       C  0.49695807  0.16218848  0.60310347    -0.25500
C3556       C  0.49867711  0.14291774  0.60821811     0.27200
H3557       H  0.47705638  0.14267583  0.67225291     0.13000
N3558       N  0.47506076  0.17963371  0.66996380    -0.82700
H3559       H  0.50206445  0.16743661  0.58343162     0.17800
N3560       N  0.50806063  0.13067799  0.58805703    -0.81300
H3561       H  0.47080074  0.17208666  0.68736081     0.33500
H3562       H  0.48879320  0.18792221  0.67525030     0.37900
H3563       H  0.51276375  0.13813869  0.57074651     0.33400
H3564       H  0.52274715  0.12501837  0.59614567     0.30100
H3565       H  0.51678264  0.11311869  0.69934552     0.33400
H3566       H  0.52610950  0.12474963  0.67205597     0.30100
H3567       H  0.46219696  0.07879674  0.59095881     0.38000
H3568       H  0.47883567  0.06178579  0.60250872     0.33500
C3569       C  0.30231967  0.00505585  0.20200732    -0.20300
C3570       C  0.31498019  0.00730006  0.22607457     0.35900
C3571       C  0.30380936  0.00839822  0.25127927    -0.26300
C3572       C  0.28035095  0.00755840  0.25270370     0.02400
C3573       C  0.26772336  0.00594219  0.22870221     0.27200
C3574       C  0.27881752  0.00444504  0.20364790    -0.25400
N3575       N  0.33903341  0.00814048  0.22490513    -0.82800
H3576       H  0.31337177  0.00979829  0.26988254     0.13000
C3577       C  0.26893420  0.00816352  0.27939648     0.02300
N3578       N  0.24365161  0.00607631  0.22991759    -0.81300
H3579       H  0.26902876  0.00301206  0.18521976     0.17800
C3580       C  0.26051524  0.02513937  0.28900064    -0.26200
C3581       C  0.24858434  0.02610271  0.31361871     0.35800
C3582       C  0.24512627  0.00972826  0.32893460    -0.20200
C3583       C  0.25314971  0.99266321  0.31891262    -0.25500
C3584       C  0.26511727  0.99173623  0.29429400     0.27200
H3585       H  0.26314329  0.03763033  0.27711022     0.13000
N3586       N  0.23976805  0.04359220  0.32301285    -0.82700
H3587       H  0.25065374  0.98012164  0.33072964     0.17800
N3588       N  0.27368574  0.97426044  0.28450374    -0.81300
H3589       H  0.24381595  0.05426458  0.30945557     0.33500
H3590       H  0.22229595  0.04251831  0.32306728     0.37900
H3591       H  0.26968929  0.96354132  0.29800208     0.33400
H3592       H  0.26551609  0.97118049  0.26625588     0.30100
H3593       H  0.23681881  0.00516835  0.21040293     0.33400
H3594       H  0.23854203  0.99413930  0.24032286     0.30100
H3595       H  0.34479659  0.99523406  0.21796459     0.38000
H3596       H  0.34574684  0.01003939  0.24433317     0.33500
C3597       C  0.42617023  0.00403501  0.16327887    -0.20300
C3598       C  0.42595857  0.01175360  0.18967285     0.35900
C3599       C  0.44626850  0.01389313  0.20368112    -0.26300
C3600       C  0.46651999  0.00805423  0.19200365     0.02400
C3601       C  0.46675455  0.00038186  0.16567760     0.27200
C3602       C  0.44655686  0.99849821  0.15151201    -0.25400
N3603       N  0.40513046  0.01672222  0.20248238    -0.82800
H3604       H  0.44625891  0.01946699  0.22416432     0.13000
C3605       C  0.48712995  0.00858953  0.20840786     0.02300
N3606       N  0.48750011  0.99435284  0.15365993    -0.81300
H3607       H  0.44672419  0.99268473  0.13116851     0.17800
C3608       C  0.49755227  0.99173059  0.21494623    -0.26200
C3609       C  0.51653926  0.99138381  0.23148029     0.35800
C3610       C  0.52517664  0.00818353  0.24194736    -0.20200
C3611       C  0.51519843  0.02515464  0.23458849    -0.25500
C3612       C  0.49613762  0.02551111  0.21789592     0.27200
H3613       H  0.49069503  0.97872226  0.20746432     0.13000
N3614       N  0.52707405  0.97394836  0.23746205    -0.82700
H3615       H  0.52182096  0.03809534  0.24258927     0.17800
N3616       N  0.48574474  0.04287760  0.21077330    -0.81300
H3617       H  0.53168240  0.96769350  0.21908500     0.33500
H3618       H  0.51527844  0.96537657  0.24693811     0.37900
H3619       H  0.49439979  0.05402726  0.21953587     0.33400
H3620       H  0.48714295  0.04443151  0.18971909     0.30100
H3621       H  0.48475336  0.98885658  0.13425599     0.33400
H3622       H  0.49763010  0.00609923  0.15118721     0.30100
H3623       H  0.39586080  0.00449962  0.20506151     0.38000
H3624       H  0.40795225  0.02212562  0.22192578     0.33500
C3625       C  0.16954731  0.00577990  0.92698420    -0.20300
C3626       C  0.17881937  0.02174839  0.93924904     0.35900
C3627       C  0.19940190  0.02030758  0.95272110    -0.26300
C3628       C  0.21117250  0.00340029  0.95320570     0.02400
C3629       C  0.20165549  0.98735782  0.94132397     0.27200
C3630       C  0.18061495  0.98863066  0.92894679    -0.25400
N3631       N  0.16751941  0.03937853  0.93743237    -0.82800
H3632       H  0.20650525  0.03248479  0.96247830     0.13000
C3633       C  0.23326506  0.00265839  0.96664581     0.02300
N3634       N  0.21379911  0.97006508  0.94087739    -0.81300
H3635       H  0.17361188  0.97647416  0.91901137     0.17800
C3636       C  0.23696511  0.98910890  0.98658230    -0.26200
C3637       C  0.25720857  0.98840647  0.00075291     0.35800
C3638       C  0.27363263  0.00200250  0.99557773    -0.20200
C3639       C  0.27021552  0.01544748  0.97550225    -0.25500
C3640       C  0.25033856  0.01557538  0.96032474     0.27200
H3641       H  0.22378932  0.97932383  0.99158950     0.13000
N3642       N  0.26086948  0.97434463  0.02103691    -0.82700
H3643       H  0.28306317  0.02578393  0.97171047     0.17800
N3644       N  0.24738953  0.02868769  0.93858825    -0.81300
H3645       H  0.24740085  0.96504946  0.02165704     0.33500
H3646       H  0.26130671  0.98096377  0.03995975     0.37900
H3647       H  0.26155435  0.03714224  0.93661044     0.33400
H3648       H  0.24604939  0.02108930  0.92051437     0.30100
H3649       H  0.20444418  0.95965603  0.93127525     0.33400
H3650       H  0.22818145  0.97206253  0.92909493     0.30100
H3651       H  0.15233463  0.03818284  0.94788459     0.38000
H3652       H  0.17674471  0.04977894  0.94723816     0.33500
C3653       C  0.38386518  0.99865805  0.96267184    -0.20300
C3654       C  0.37967586  0.98354680  0.94482695     0.35900
C3655       C  0.38713113  0.98451685  0.91775233    -0.26300
C3656       C  0.39933858  0.99987658  0.90827945     0.02400
C3657       C  0.40393718  0.01476637  0.92612189     0.27200
C3658       C  0.39596733  0.01408841  0.95295251    -0.25400
N3659       N  0.36825703  0.96714598  0.95422274    -0.82800
H3660       H  0.38362825  0.97310818  0.90395590     0.13000
C3661       C  0.40743859  0.00002078  0.87970111     0.02300
N3662       N  0.41692783  0.03041595  0.91702050    -0.81300
H3663       H  0.39929827  0.02574474  0.96635343     0.17800
C3664       C  0.40136952  0.01471414  0.86253553    -0.26200
C3665       C  0.40880802  0.01542370  0.83544011     0.35800
C3666       C  0.42192314  0.00061786  0.82481086    -0.20200
C3667       C  0.42798898  0.98592611  0.84222794    -0.25500
C3668       C  0.42120321  0.98564416  0.86959271     0.27200
H3669       H  0.39090945  0.02580411  0.87044503     0.13000
N3670       N  0.40338881  0.03131901  0.81899504    -0.82700
H3671       H  0.43818350  0.97459939  0.83455836     0.17800
N3672       N  0.42846129  0.97093537  0.88729901    -0.81300
H3673       H  0.39330498  0.04068902  0.82974429     0.33500
H3674       H  0.41837768  0.03831152  0.81490469     0.37900
H3675       H  0.43852494  0.96143330  0.87677708     0.33400
H3676       H  0.43855825  0.97690489  0.90233189     0.30100
H3677       H  0.41873019  0.04022359  0.93259625     0.33400
H3678       H  0.43302144  0.02557463  0.91246530     0.30100
H3679       H  0.37855479  0.96075018  0.96863547     0.38000
H3680       H  0.36624911  0.95754558  0.93840975     0.33500
C3681       C  0.51413037  0.25675993  0.03022637    -0.20300
C3682       C  0.51126425  0.24655046  0.05452190     0.35900
C3683       C  0.49033418  0.24678738  0.06762410    -0.26300
C3684       C  0.47234387  0.25704784  0.05711032     0.02400
C3685       C  0.47495264  0.26696266  0.03275157     0.27200
C3686       C  0.49578655  0.26678972  0.01963735    -0.25400
N3687       N  0.52957874  0.23631042  0.06614142    -0.82800
H3688       H  0.48814934  0.23931677  0.08655190     0.13000
C3689       C  0.45126115  0.25804365  0.07274309     0.02300
N3690       N  0.45640260  0.27710680  0.02144404    -0.81300
H3691       H  0.49756645  0.27444183  0.00081373     0.17800
C3692       C  0.44454145  0.27519814  0.08361413    -0.26200
C3693       C  0.42608088  0.27642182  0.10119002     0.35800
C3694       C  0.41423009  0.26004402  0.10808514    -0.20200
C3695       C  0.42026986  0.24307080  0.09580946    -0.25500
C3696       C  0.43872803  0.24191127  0.07825788     0.27200
H3697       H  0.45419519  0.28757460  0.07901510     0.13000
N3698       N  0.41957741  0.29414902  0.11229961    -0.82700
H3699       H  0.41117445  0.23048384  0.10077918     0.17800
N3700       N  0.44517539  0.22437082  0.06651099    -0.81300
H3701       H  0.43024007  0.30468875  0.10543892     0.33500
H3702       H  0.40362143  0.29725193  0.10481283     0.37900
H3703       H  0.43433214  0.21379584  0.07281780     0.33400
H3704       H  0.44335073  0.22548382  0.04544650     0.30100
H3705       H  0.46113097  0.28375985  0.00345287     0.33400
H3706       H  0.44404008  0.26743598  0.01619752     0.30100
H3707       H  0.54164799  0.24596945  0.07233395     0.38000
H3708       H  0.52443416  0.22927257  0.08364550     0.33500
C3709       C  0.41926608  0.25331499  0.46470905    -0.20300
C3710       C  0.41206805  0.23666639  0.45181900     0.35900
C3711       C  0.40521879  0.23715327  0.42442110    -0.26300
C3712       C  0.40494871  0.25385835  0.40978719     0.02400
C3713       C  0.41179158  0.27045234  0.42256272     0.27200
C3714       C  0.41897544  0.27000193  0.44976656    -0.25400
N3715       N  0.41233041  0.21924115  0.46613357    -0.82800
H3716       H  0.39985054  0.22445976  0.41442524     0.13000
C3717       C  0.39726546  0.25381843  0.38109415     0.02300
N3718       N  0.41146612  0.28768898  0.40778688    -0.81300
H3719       H  0.42431099  0.28282953  0.45940005     0.17800
C3720       C  0.37621777  0.26123446  0.37478127    -0.26200
C3721       C  0.36808895  0.26116851  0.34793467     0.35800
C3722       C  0.38168984  0.25398762  0.32666595    -0.20200
C3723       C  0.40283415  0.24656073  0.33323605    -0.25500
C3724       C  0.41068402  0.24633239  0.36021461     0.27200
H3725       H  0.36591557  0.26678573  0.39103307     0.13000
N3726       N  0.34591407  0.26802474  0.34242064    -0.82700
H3727       H  0.41341304  0.24104733  0.31723600     0.17800
N3728       N  0.43223300  0.23853462  0.36654677    -0.81300
H3729       H  0.33836753  0.27303687  0.36016935     0.33500
H3730       H  0.33623206  0.25672937  0.33593208     0.37900
H3731       H  0.43998758  0.23347686  0.34896178     0.33400
H3732       H  0.44234827  0.24930284  0.37390102     0.30100
H3733       H  0.41686063  0.29866802  0.42013432     0.33400
H3734       H  0.42307381  0.28656721  0.39194510     0.30100
H3735       H  0.39940488  0.21964075  0.48046371     0.38000
H3736       H  0.40844076  0.20825238  0.45298897     0.33500
C3737       C  0.31557436  0.17684152  0.15860408    -0.20300
C3738       C  0.32323808  0.17032467  0.13304387     0.35900
C3739       C  0.32158606  0.15139405  0.12641233    -0.26300
C3740       C  0.31187073  0.13859542  0.14432861     0.02400
C3741       C  0.30276619  0.14513289  0.16908865     0.27200
C3742       C  0.30483311  0.16411610  0.17604693    -0.25400
N3743       N  0.33304344  0.18275818  0.11369547    -0.82800
H3744       H  0.32867111  0.14659536  0.10736674     0.13000
C3745       C  0.31294631  0.11832886  0.13770096     0.02300
N3746       N  0.29177329  0.13240266  0.18723526    -0.81300
H3747       H  0.29860388  0.16882229  0.19556637     0.17800
C3748       C  0.32270075  0.10613034  0.15650605    -0.26200
C3749       C  0.32574027  0.08720249  0.15049190     0.35800
C3750       C  0.31900553  0.08004414  0.12495501    -0.20200
C3751       C  0.30888102  0.09225553  0.10627440    -0.25500
C3752       C  0.30586686  0.11126341  0.11229839     0.27200
H3753       H  0.32859010  0.11142707  0.17586240     0.13000
N3754       N  0.33580046  0.07541606  0.17048776    -0.82700
H3755       H  0.30372933  0.08708830  0.08654912     0.17800
N3756       N  0.29589067  0.12344736  0.09257556    -0.81300
H3757       H  0.35164121  0.08076599  0.17512391     0.33500
H3758       H  0.32601992  0.07598977  0.18810395     0.37900
H3759       H  0.29192369  0.11616119  0.07480328     0.33400
H3760       H  0.28077804  0.12829069  0.10067751     0.30100
H3761       H  0.28601917  0.13936008  0.20456816     0.33400
H3762       H  0.27761498  0.12724320  0.17724136     0.30100
H3763       H  0.34926878  0.17809359  0.10944252     0.38000
H3764       H  0.32371726  0.18197574  0.09575582     0.33500
C3765       C  0.17423418  0.17558006  0.78323141    -0.20300
C3766       C  0.15118822  0.17117609  0.78440390     0.35900
C3767       C  0.14413531  0.15265817  0.78158755    -0.26300
C3768       C  0.15967971  0.13829436  0.77777344     0.02400
C3769       C  0.18257037  0.14270942  0.77450911     0.27200
C3770       C  0.18962471  0.16140969  0.77689199    -0.25400
N3771       N  0.13492692  0.18543523  0.78950514    -0.82800
H3772       H  0.12654850  0.14933038  0.78417024     0.13000
C3773       C  0.15232460  0.11887846  0.78292638     0.02300
N3774       N  0.19864141  0.12809260  0.77022476    -0.81300
H3775       H  0.20733243  0.16467600  0.77600380     0.17800
C3776       C  0.14719643  0.10668539  0.76146069    -0.26200
C3777       C  0.13977239  0.08832196  0.76664263     0.35800
C3778       C  0.13748050  0.08220351  0.79384155    -0.20200
C3779       C  0.14272262  0.09457935  0.81507214    -0.25500
C3780       C  0.15005237  0.11274912  0.80992904     0.27200
H3781       H  0.14898098  0.11151366  0.74073031     0.13000
N3782       N  0.13485979  0.07590215  0.74450080    -0.82700
H3783       H  0.14084159  0.09012625  0.83597569     0.17800
N3784       N  0.15499057  0.12517048  0.83210097    -0.81300
H3785       H  0.13729646  0.08259075  0.72588085     0.33500
H3786       H  0.14643120  0.06498722  0.74524774     0.37900
H3787       H  0.15208351  0.11866066  0.85075614     0.33400
H3788       H  0.17211400  0.12819229  0.83139115     0.30100
H3789       H  0.21475198  0.13363653  0.76822082     0.33400
H3790       H  0.19884898  0.11978483  0.78764107     0.30100
H3791       H  0.12622579  0.18199523  0.80724895     0.38000
H3792       H  0.12350102  0.18544912  0.77341167     0.33500
C3793       C  0.24671922  0.25094971  0.95633446    -0.20300
C3794       C  0.23548796  0.25901676  0.97882989     0.35900
C3795       C  0.24588886  0.25895634  0.00457346    -0.26300
C3796       C  0.26727914  0.25121514  0.00829386     0.02400
C3797       C  0.27851354  0.24327752  0.98597319     0.27200
C3798       C  0.26813158  0.24313572  0.96041404    -0.25400
N3799       N  0.21345689  0.26681491  0.97578770    -0.82800
H3800       H  0.23732591  0.26503796  0.02186801     0.13000
C3801       C  0.27816335  0.25194093  0.03544018     0.02300
N3802       N  0.30060054  0.23560185  0.98930265    -0.81300
H3803       H  0.27710863  0.23707925  0.94342492     0.17800
C3804       C  0.28431517  0.23531829  0.04842518    -0.26200
C3805       C  0.29550079  0.23551536  0.07361379     0.35800
C3806       C  0.30052213  0.25274411  0.08612016    -0.20200
C3807       C  0.29417659  0.26933859  0.07311877    -0.25500
C3808       C  0.28334452  0.26911832  0.04777658     0.27200
H3809       H  0.28031744  0.22214191  0.03882895     0.13000
N3810       N  0.30141150  0.21831767  0.08666048    -0.82700
H3811       H  0.29808392  0.28258524  0.08256223     0.17800
N3812       N  0.27795749  0.28626241  0.03424719    -0.81300
H3813       H  0.29666962  0.20695849  0.07465589     0.33500
H3814       H  0.29215237  0.21740112  0.10465368     0.37900
H3815       H  0.28288980  0.29767786  0.04602088     0.33400
H3816       H  0.28739446  0.28679379  0.01635321     0.30100
H3817       H  0.30654965  0.23018576  0.97092813     0.33400
H3818       H  0.31134216  0.24651177  0.99461958     0.30100
H3819       H  0.21511594  0.27914999  0.96475039     0.38000
H3820       H  0.20691825  0.27066885  0.99469795     0.33500
C3821       C  0.12839468  0.25061960  0.91256155    -0.20300
C3822       C  0.10748319  0.24730770  0.89996423     0.35900
C3823       C  0.08788730  0.24869236  0.91541137    -0.26300
C3824       C  0.08889215  0.25345862  0.94288887     0.02400
C3825       C  0.10958780  0.25716936  0.95543519     0.27200
C3826       C  0.12926378  0.25590289  0.93999123    -0.25400
N3827       N  0.10621911  0.24273188  0.87153888    -0.82800
H3828       H  0.07177298  0.24581193  0.90615992     0.13000
C3829       C  0.06822681  0.25288714  0.95881820     0.02300
N3830       N  0.11049078  0.26163205  0.98390799    -0.81300
H3831       H  0.14532856  0.25855684  0.94949675     0.17800
C3832       C  0.06298118  0.23639082  0.97227408    -0.26200
C3833       C  0.04361238  0.23502446  0.98808787     0.35800
C3834       C  0.02946032  0.25076955  0.99083919    -0.20200
C3835       C  0.03441337  0.26708595  0.97624988    -0.25500
C3836       C  0.05379169  0.26829197  0.96024739     0.27200
H3837       H  0.07414481  0.22454897  0.97042848     0.13000
N3838       N  0.03843117  0.21776238  0.00145022    -0.82700
H3839       H  0.02369434  0.27918599  0.97818207     0.17800
N3840       N  0.05904594  0.28507973  0.94573015    -0.81300
H3841       H  0.05084590  0.20780673  0.99772771     0.33500
H3842       H  0.02366132  0.21262572  0.99283212     0.37900
H3843       H  0.04655499  0.29507638  0.94876794     0.33400
H3844       H  0.07376040  0.29055463  0.95403635     0.30100
H3845       H  0.12707061  0.26366512  0.99008830     0.33400
H3846       H  0.10223467  0.27432235  0.98672383     0.30100
H3847       H  0.11188609  0.25428347  0.86062421     0.38000
H3848       H  0.08960460  0.24049889  0.86564417     0.33500
C3849       C  0.29038557  0.25217650  0.75514589    -0.20300
C3850       C  0.31123906  0.25668535  0.76715461     0.35900
C3851       C  0.33058142  0.25657917  0.75112974    -0.26300
C3852       C  0.32949290  0.25194789  0.72359809     0.02400
C3853       C  0.30889570  0.24707942  0.71160669     0.27200
C3854       C  0.28943464  0.24712743  0.72761882    -0.25400
N3855       N  0.31273171  0.26117640  0.79560458    -0.82800
H3856       H  0.34661519  0.26016382  0.76006068     0.13000
C3857       C  0.35007065  0.25299459  0.70737347     0.02300
N3858       N  0.30786801  0.24236554  0.68322600    -0.81300
H3859       H  0.27344276  0.24367674  0.71848913     0.17800
C3860       C  0.36017792  0.23654272  0.69837879    -0.26200
C3861       C  0.37949558  0.23709726  0.68218859     0.35800
C3862       C  0.38885957  0.25455591  0.67527320    -0.20200
C3863       C  0.37888261  0.27097653  0.68497720    -0.25500
C3864       C  0.35948787  0.27036224  0.70090453     0.27200
H3865       H  0.35270804  0.22328110  0.70364940     0.13000
N3866       N  0.38909313  0.22007928  0.67208023    -0.82700
H3867       H  0.38605838  0.28435920  0.67976471     0.17800
N3868       N  0.34910352  0.28726253  0.71027531    -0.81300
H3869       H  0.38033460  0.20854768  0.67947842     0.33500
H3870       H  0.38708902  0.21996748  0.65097228     0.37900
H3871       H  0.35822993  0.29886983  0.70384488     0.33400
H3872       H  0.33335922  0.28819017  0.70106951     0.30100
H3873       H  0.29144112  0.23909544  0.67759894     0.33400
H3874       H  0.31237140  0.25420755  0.67218102     0.30100
H3875       H  0.30821102  0.24928897  0.80653420     0.38000
H3876       H  0.32924668  0.26428521  0.80105116     0.33500
C3877       C  0.17335553  0.58154306  0.99934546    -0.20300
C3878       C  0.15068747  0.58686818  0.99636044     0.35900
C3879       C  0.14443802  0.60544847  0.00103817    -0.26300
C3880       C  0.16025667  0.61880136  0.00886696     0.02400
C3881       C  0.18243511  0.61317453  0.01459305     0.27200
C3882       C  0.18876712  0.59452411  0.00979573    -0.25400
N3883       N  0.13421054  0.57349394  0.98780717    -0.82800
H3884       H  0.12737314  0.60980384  0.99701934     0.13000
C3885       C  0.15405113  0.63868530  0.00568773     0.02300
N3886       N  0.19840124  0.62636102  0.02506750    -0.81300
H3887       H  0.20605648  0.59039458  0.01274067     0.17800
C3888       C  0.14017614  0.64760331  0.02479968    -0.26200
C3889       C  0.13125022  0.66547657  0.01968708     0.35800
C3890       C  0.13634157  0.67466181  0.99505289    -0.20200
C3891       C  0.15042166  0.66552539  0.97621767    -0.25500
C3892       C  0.15902763  0.64771829  0.98106944     0.27200
H3893       H  0.13573899  0.64043928  0.04339351     0.13000
N3894       N  0.11683001  0.67400603  0.03935423    -0.82700
H3895       H  0.15435247  0.67201852  0.95696040     0.17800
N3896       N  0.17155187  0.63823000  0.96020143    -0.81300
H3897       H  0.12562988  0.67511116  0.05764870     0.33500
H3898       H  0.10314765  0.66518308  0.04251762     0.37900
H3899       H  0.17239701  0.64626763  0.94254296     0.33400
H3900       H  0.18802021  0.63668459  0.96693614     0.30100
H3901       H  0.21384023  0.61989602  0.02848123     0.33400
H3902       H  0.20119953  0.63656907  0.01039601     0.30100
H3903       H  0.13307674  0.56337408  0.00298466     0.38000
H3904       H  0.11839454  0.57967842  0.98640552     0.33500
C3905       C  0.13552705  0.50834245  0.86164041    -0.20300
C3906       C  0.11867773  0.52228798  0.86169763     0.35900
C3907       C  0.09878580  0.51926452  0.84730370    -0.26300
C3908       C  0.09544738  0.50295874  0.83233647     0.02400
C3909       C  0.11249508  0.48945615  0.83095646     0.27200
C3910       C  0.13237851  0.49227119  0.84562262    -0.25400
N3911       N  0.12163689  0.53945163  0.87636540    -0.82800
H3912       H  0.08582466  0.52983459  0.84741933     0.13000
C3913       C  0.07450320  0.50108847  0.81670939     0.02300
N3914       N  0.10937486  0.47285742  0.81502628    -0.81300
H3915       H  0.14512720  0.48155055  0.84513525     0.17800
C3916       C  0.07579803  0.50114479  0.78836414    -0.26200
C3917       C  0.05637324  0.50193563  0.77256738     0.35800
C3918       C  0.03525128  0.50276560  0.78546181    -0.20200
C3919       C  0.03381229  0.50184359  0.81384299    -0.25500
C3920       C  0.05339941  0.50111240  0.82969819     0.27200
H3921       H  0.09207109  0.50116824  0.77857301     0.13000
N3922       N  0.05795665  0.50205322  0.74339264    -0.82700
H3923       H  0.01752713  0.50229628  0.82357039     0.17800
N3924       N  0.05207460  0.50078409  0.85886026    -0.81300
H3925       H  0.07469832  0.50163850  0.73715690     0.33500
H3926       H  0.05050243  0.48982256  0.73623759     0.37900
H3927       H  0.03535792  0.50100218  0.86521594     0.33400
H3928       H  0.05880915  0.48812433  0.86538131     0.30100
H3929       H  0.12355516  0.46434272  0.81608620     0.33400
H3930       H  0.09618174  0.46535916  0.82370155     0.30100
H3931       H  0.13464557  0.54675349  0.86694978     0.38000
H3932       H  0.10737487  0.54784139  0.87489313     0.33500
C3933       C  0.23577989  0.42658432  0.90885992    -0.20300
C3934       C  0.22912304  0.42000183  0.88288882     0.35900
C3935       C  0.22940960  0.40080414  0.87748068    -0.26300
C3936       C  0.23676403  0.38812044  0.89704539     0.02400
C3937       C  0.24468525  0.39457145  0.92225574     0.27200
C3938       C  0.24416226  0.41374928  0.92793494    -0.25400
N3939       N  0.22200413  0.43273558  0.86211535    -0.82800
H3940       H  0.22367308  0.39563755  0.85797771     0.13000
C3941       C  0.23515119  0.36802690  0.89113438     0.02300
N3942       N  0.25287374  0.38157699  0.94208788    -0.81300
H3943       H  0.24952948  0.41856036  0.94776545     0.17800
C3944       C  0.25379125  0.35859489  0.88071055    -0.26200
C3945       C  0.25248115  0.33962447  0.87379591     0.35800
C3946       C  0.23194750  0.33003073  0.87716851    -0.20200
C3947       C  0.21348647  0.33953671  0.88833841    -0.25500
C3948       C  0.21488419  0.35845322  0.89528023     0.27200
H3949       H  0.26934934  0.36611618  0.87784900     0.13000
N3950       N  0.27193435  0.33009913  0.86358395    -0.82700
H3951       H  0.19770544  0.33232089  0.89104661     0.17800
N3952       N  0.19569750  0.36812778  0.90596394    -0.81300
H3953       H  0.28552772  0.33921875  0.86207616     0.33500
H3954       H  0.27639798  0.32001485  0.87788305     0.37900
H3955       H  0.18196573  0.35914966  0.90743841     0.33400
H3956       H  0.19953736  0.37232931  0.92577287     0.30100
H3957       H  0.25828871  0.38857871  0.95953426     0.33400
H3958       H  0.23945109  0.37316534  0.94802257     0.30100
H3959       H  0.23580177  0.44097457  0.85695627     0.38000
H3960       H  0.21735916  0.42557965  0.84447286     0.33500
C3961       C  0.16600310  0.08047764  0.50346829    -0.20300
C3962       C  0.17938633  0.09630571  0.50863424     0.35900
C3963       C  0.16903009  0.11379667  0.51206807    -0.26300
C3964       C  0.14564976  0.11568895  0.51068112     0.02400
C3965       C  0.13224931  0.09963063  0.50819378     0.27200
C3966       C  0.14255110  0.08222448  0.50434486    -0.25400
N3967       N  0.20338763  0.09486870  0.50812686    -0.82800
H3968       H  0.17927551  0.12617952  0.51399214     0.13000
C3969       C  0.13585642  0.13452859  0.50677716     0.02300
N3970       N  0.10824403  0.10123822  0.50838099    -0.81300
H3971       H  0.13223512  0.07005390  0.50072385     0.17800
C3972       C  0.12645810  0.13865337  0.48140628    -0.26200
C3973       C  0.11954614  0.15676262  0.47494337     0.35800
C3974       C  0.12183603  0.17113171  0.49437331    -0.20200
C3975       C  0.13026487  0.16689594  0.52029837    -0.25500
C3976       C  0.13753384  0.14868508  0.52659880     0.27200
H3977       H  0.12527830  0.12777667  0.46617464     0.13000
N3978       N  0.11051962  0.16072483  0.44848081    -0.82700
H3979       H  0.13202525  0.17792938  0.53518915     0.17800
N3980       N  0.14700896  0.14456295  0.55272981    -0.81300
H3981       H  0.11016306  0.14871005  0.43646413     0.33500
H3982       H  0.09387988  0.16491881  0.45108185     0.37900
H3983       H  0.14720133  0.15648621  0.56494551     0.33400
H3984       H  0.13643259  0.13499176  0.56227817     0.30100
H3985       H  0.10080207  0.08815042  0.50611916     0.33400
H3986       H  0.10354788  0.10616461  0.52756768     0.30100
H3987       H  0.20814694  0.08698208  0.52498337     0.38000
H3988       H  0.21071709  0.10797297  0.51069486     0.33500
C3989       C  0.99758893  0.25750468  0.20533367    -0.20300
C3990       C  0.99959273  0.24109135  0.22099567     0.35900
C3991       C  0.00977536  0.24198651  0.24671814    -0.26300
C3992       C  0.01749554  0.25891227  0.25748764     0.02400
C3993       C  0.01492176  0.27536717  0.24228381     0.27200
C3994       C  0.00519109  0.27446642  0.21633071    -0.25400
N3995       N  0.99216062  0.22346714  0.21045673    -0.82800
H3996       H  0.01190592  0.22934660  0.25841154     0.13000
C3997       C  0.02845780  0.25904279  0.28460413     0.02300
N3998       N  0.02218457  0.29291420  0.25327523    -0.81300
H3999       H  0.00348493  0.28714406  0.20462146     0.17800
C4000       C  0.05042385  0.26580567  0.28724551    -0.26200
C4001       C  0.06173560  0.26532986  0.31235809     0.35800
C4002       C  0.05095404  0.25746452  0.33526300    -0.20200
C4003       C  0.02871376  0.25110888  0.33250908    -0.25500
C4004       C  0.01737071  0.25190614  0.30758644     0.27200
H4005       H  0.05889384  0.27126111  0.26948463     0.13000
N4006       N  0.08425731  0.27229312  0.31429204    -0.82700
H4007       H  0.01999626  0.24545386  0.34995430     0.17800
N4008       N  0.99463219  0.24542509  0.30547672    -0.81300
H4009       H  0.09019499  0.27625088  0.29516332     0.33500
H4010       H  0.08370706  0.28447778  0.32592516     0.37900
H4011       H  0.98893263  0.24042872  0.32418577     0.33400
H4012       H  0.98459087  0.25686620  0.30061204     0.30100
H4013       H  0.01921757  0.30366971  0.23945611     0.33400
H4014       H  0.01235745  0.29573772  0.27039113     0.30100
H4015       H  0.97465105  0.22366937  0.21030281     0.38000
H4016       H  0.99668207  0.21265704  0.22354830     0.33500
C4017       C  0.92397668  0.25965082  0.62094036    -0.20300
C4018       C  0.92493883  0.24929470  0.59655728     0.35900
C4019       C  0.94514513  0.24855748  0.58218121    -0.26300
C4020       C  0.96432099  0.25751405  0.59211789     0.02400
C4021       C  0.96356588  0.26735392  0.61681631     0.27200
C4022       C  0.94328010  0.26858028  0.63077628    -0.25400
N4023       N  0.90549829  0.23973814  0.58638246    -0.82800
H4024       H  0.94594333  0.24112766  0.56301315     0.13000
C4025       C  0.98494741  0.25698577  0.57595511     0.02300
N4026       N  0.98346767  0.27584574  0.62769486    -0.81300
H4027       H  0.94271173  0.27615718  0.64983031     0.17800
C4028       C  0.99440235  0.27382002  0.56748912    -0.26200
C4029       C  0.01344240  0.27398785  0.55109613     0.35800
C4030       C  0.02299700  0.25697593  0.54261725    -0.20200
C4031       C  0.01383568  0.24010638  0.55180952    -0.25500
C4032       C  0.99484739  0.23995354  0.56848861     0.27200
H4033       H  0.98676922  0.28692110  0.57335722     0.13000
N4034       N  0.02304399  0.29145925  0.54327779    -0.82700
H4035       H  0.02111694  0.22699416  0.54541755     0.17800
N4036       N  0.98541228  0.22264835  0.57764818    -0.81300
H4037       H  0.02717641  0.29881069  0.56093767     0.33500
H4038       H  0.01086355  0.29905925  0.53281528     0.37900
H4039       H  0.99463155  0.21137930  0.57014378     0.33400
H4040       H  0.98686111  0.22229032  0.59881347     0.30100
H4041       H  0.97999087  0.28259769  0.64606459     0.33400
H4042       H  0.99479420  0.26517618  0.63214439     0.30100
H4043       H  0.89357234  0.24979083  0.58125956     0.38000
H4044       H  0.90929906  0.23249120  0.56851596     0.33500
C4045       C  0.27357479  0.24965672  0.29458747    -0.20300
C4046       C  0.27143983  0.26083525  0.31816217     0.35900
C4047       C  0.25136412  0.26022305  0.33310350    -0.26300
C4048       C  0.23361137  0.24872071  0.32494806     0.02400
C4049       C  0.23603789  0.23700146  0.30231676     0.27200
C4050       C  0.25582077  0.23770654  0.28726728    -0.25400
N4051       N  0.28954514  0.27250085  0.32713765    -0.82800
H4052       H  0.24937653  0.26893600  0.35094789     0.13000
C4053       C  0.21255551  0.24864234  0.34047734     0.02300
N4054       N  0.21835514  0.22439829  0.29477616    -0.81300
H4055       H  0.25710572  0.22896675  0.26937416     0.17800
C4056       C  0.19265750  0.25432401  0.32773670    -0.26200
C4057       C  0.17205007  0.25334119  0.34141464     0.35800
C4058       C  0.17156938  0.24648750  0.36820404    -0.20200
C4059       C  0.19156977  0.24090593  0.38086057    -0.25500
C4060       C  0.21208555  0.24192514  0.36725066     0.27200
H4061       H  0.19325806  0.25936704  0.30700695     0.13000
N4062       N  0.15170046  0.25900624  0.32818158    -0.82700
H4063       H  0.19123127  0.23593472  0.40164005     0.17800
N4064       N  0.23241262  0.23604785  0.38036345    -0.81300
H4065       H  0.15504605  0.26372174  0.30850553     0.33500
H4066       H  0.14155084  0.24722326  0.32616223     0.37900
H4067       H  0.22916284  0.23166076  0.40022492     0.33400
H4068       H  0.23846869  0.22443972  0.36982199     0.30100
H4069       H  0.22274784  0.21677874  0.27744611     0.33400
H4070       H  0.21653595  0.21476619  0.31052617     0.30100
H4071       H  0.29016364  0.28395087  0.31411823     0.38000
H4072       H  0.28615432  0.27790567  0.34645451     0.33500
C4073       C  0.13315322  0.24730531  0.57492049    -0.20300
C4074       C  0.11982846  0.24068857  0.59673425     0.35900
C4075       C  0.12868089  0.24063348  0.62322881    -0.26300
C4076       C  0.15035946  0.24719307  0.62850880     0.02400
C4077       C  0.16365957  0.25379203  0.60696890     0.27200
C4078       C  0.15498978  0.25371432  0.58045046    -0.25400
N4079       N  0.09729033  0.23434493  0.59214988    -0.82800
H4080       H  0.11855392  0.23562420  0.63997478     0.13000
C4081       C  0.15879950  0.24748217  0.65682948     0.02300
N4082       N  0.18584138  0.26073651  0.61220348    -0.81300
H4083       H  0.16540925  0.25876856  0.56401362     0.17800
C4084       C  0.17718416  0.23638932  0.66386293    -0.26200
C4085       C  0.18583098  0.23639435  0.69046264     0.35800
C4086       C  0.17604224  0.24815309  0.71048170    -0.20200
C4087       C  0.15741119  0.25911591  0.70313597    -0.25500
C4088       C  0.14879284  0.25894650  0.67660214     0.27200
H4089       H  0.18467411  0.22752556  0.64849545     0.13000
N4090       N  0.20446780  0.22451709  0.69692817    -0.82700
H4091       H  0.14952024  0.26805681  0.71807950     0.17800
N4092       N  0.13010724  0.27059796  0.66950650    -0.81300
H4093       H  0.21042979  0.21778707  0.67950253     0.33500
H4094       H  0.19848867  0.21401860  0.70970649     0.37900
H4095       H  0.12456565  0.27815142  0.68640682     0.33400
H4096       H  0.13577658  0.28034573  0.65533109     0.30100
H4097       H  0.19351115  0.26500062  0.59415174     0.33400
H4098       H  0.18427310  0.27261014  0.62438170     0.30100
H4099       H  0.08778486  0.24585295  0.58616241     0.38000
H4100       H  0.09012813  0.22950155  0.61019703     0.33500
C4101       C  0.18078845  0.67090046  0.29496658    -0.20300
C4102       C  0.17537273  0.65749616  0.31493790     0.35900
C4103       C  0.16889867  0.63960132  0.30711765    -0.26300
C4104       C  0.16788319  0.63449622  0.27972718     0.02400
C4105       C  0.17388139  0.64745196  0.25955970     0.27200
C4106       C  0.18032655  0.66561481  0.26737182    -0.25400
N4107       N  0.17681278  0.66181912  0.34333159    -0.82800
H4108       H  0.16454155  0.62954826  0.32265883     0.13000
C4109       C  0.16016903  0.61540664  0.27346066     0.02300
N4110       N  0.17329101  0.64214145  0.23141187    -0.81300
H4111       H  0.18465996  0.67570896  0.25191320     0.17800
C4112       C  0.13747570  0.61246190  0.26743602    -0.26200
C4113       C  0.12771009  0.59473365  0.27056541     0.35800
C4114       C  0.14111438  0.57977588  0.27965747    -0.20200
C4115       C  0.16429159  0.58247868  0.28288589    -0.25500
C4116       C  0.17393821  0.60015578  0.27988315     0.27200
H4117       H  0.12698447  0.62431647  0.26263263     0.13000
N4118       N  0.10404234  0.59226600  0.26656665    -0.82700
H4119       H  0.17469090  0.57095487  0.28940564     0.17800
N4120       N  0.19737267  0.60300365  0.28518647    -0.81300
H4121       H  0.09673692  0.60458856  0.25958792     0.33500
H4122       H  0.09686595  0.58952908  0.28553041     0.37900
H4123       H  0.20515070  0.59041170  0.29009675     0.33400
H4124       H  0.20474493  0.60762147  0.26713932     0.30100
H4125       H  0.17812482  0.65330173  0.21913078     0.33400
H4126       H  0.18525545  0.63168566  0.22855761     0.30100
H4127       H  0.16105426  0.65962424  0.35205184     0.38000
H4128       H  0.18811621  0.65256629  0.35229811     0.33500
C4129       C  0.05470096  0.50918292  0.44835266    -0.20300
C4130       C  0.06706554  0.50554809  0.47220051     0.35900
C4131       C  0.05607748  0.50582088  0.49751646    -0.26300
C4132       C  0.03302734  0.50964114  0.49946146     0.02400
C4133       C  0.02075154  0.51344577  0.47564522     0.27200
C4134       C  0.03173461  0.51330528  0.45041937    -0.25400
N4135       N  0.09073242  0.50193990  0.47070373    -0.82800
H4136       H  0.06553081  0.50312827  0.51588403     0.13000
C4137       C  0.02178882  0.50907950  0.52644323     0.02300
N4138       N  0.99710281  0.51714746  0.47713403    -0.81300
H4139       H  0.02218370  0.51611031  0.43215583     0.17800
C4140       C  0.00962645  0.52458105  0.53568387    -0.26200
C4141       C  0.99820947  0.52430269  0.56074633     0.35800
C4142       C  0.99983868  0.50839531  0.57760062    -0.20200
C4143       C  0.01191525  0.49284225  0.56798206    -0.25500
C4144       C  0.02258142  0.49292833  0.54255705     0.27200
H4145       H  0.00891740  0.53693818  0.52312904     0.13000
N4146       N  0.98531777  0.54020913  0.56908792    -0.82700
H4147       H  0.01294747  0.48038123  0.58027051     0.17800
N4148       N  0.03404434  0.47659009  0.53289167    -0.81300
H4149       H  0.98700855  0.55104560  0.55508594     0.33500
H4150       H  0.96843271  0.53635152  0.56861310     0.37900
H4151       H  0.03311493  0.46587191  0.54718507     0.33400
H4152       H  0.02560810  0.47188167  0.51557461     0.30100
H4153       H  0.99057623  0.51978625  0.45781023     0.33400
H4154       H  0.98925203  0.50507713  0.48418393     0.30100
H4155       H  0.09849663  0.51401182  0.46350786     0.38000
H4156       H  0.09728374  0.49947196  0.49006376     0.33500
C4157       C  0.92952587  0.49885484  0.16008839    -0.20300
C4158       C  0.93129108  0.50858699  0.18495128     0.35900
C4159       C  0.95233243  0.51027854  0.19741196    -0.26300
C4160       C  0.97147253  0.50228426  0.18568320     0.02400
C4161       C  0.96980025  0.49265135  0.16086043     0.27200
C4162       C  0.94882176  0.49094166  0.14837196    -0.25400
N4163       N  0.91172496  0.51629316  0.19778146    -0.82800
H4164       H  0.95374895  0.51738300  0.21678580     0.13000
C4165       C  0.99274749  0.50278589  0.20087802     0.02300
N4166       N  0.98943808  0.48469849  0.14849236    -0.81300
H4167       H  0.94762328  0.48364450  0.12913206     0.17800
C4168       C  0.00211299  0.48594428  0.20952896    -0.26200
C4169       C  0.02071631  0.48575877  0.22674299     0.35800
C4170       C  0.03002795  0.50271602  0.23573469    -0.20200
C4171       C  0.02151090  0.51957321  0.22565169    -0.25500
C4172       C  0.00286907  0.51976733  0.20827226     0.27200
H4173       H  0.99449627  0.47285932  0.20358177     0.13000
N4174       N  0.03006096  0.46831968  0.23506924    -0.82700
H4175       H  0.02879272  0.53263893  0.23224214     0.17800
N4176       N  0.99386236  0.53707373  0.19855697    -0.81300
H4177       H  0.01752606  0.46072089  0.24491526     0.33500
H4178       H  0.03478103  0.46095786  0.21762880     0.37900
H4179       H  0.00320549  0.54829330  0.20598383     0.33400
H4180       H  0.99564962  0.53718417  0.17741943     0.30100
H4181       H  0.98532773  0.47800883  0.13027503     0.33400
H4182       H  0.00020324  0.49564785  0.14347626     0.30100
H4183       H  0.90129563  0.50520566  0.20318029     0.38000
H4184       H  0.91600370  0.52311758  0.21583402     0.33500
C4185       C  0.17311599  0.50641442  0.07158104    -0.20300
C4186       C  0.15082469  0.50140728  0.07793147     0.35900
C4187       C  0.14394802  0.50120625  0.10514492    -0.26300
C4188       C  0.15861219  0.50647413  0.12599150     0.02400
C4189       C  0.18069965  0.51193295  0.11967526     0.27200
C4190       C  0.18776141  0.51177051  0.09250236    -0.25400
N4191       N  0.13512832  0.49692852  0.05675408    -0.82800
H4192       H  0.12700555  0.49701392  0.11016750     0.13000
C4193       C  0.15058632  0.50612751  0.15438714     0.02300
N4194       N  0.19581187  0.51761939  0.14087539    -0.81300
H4195       H  0.20484368  0.51567074  0.08767132     0.17800
C4196       C  0.16202704  0.49524425  0.17342206    -0.26200
C4197       C  0.15535932  0.49480182  0.20074174     0.35800
C4198       C  0.13634885  0.50518275  0.20907202    -0.20200
C4199       C  0.12470857  0.51582380  0.18965009    -0.25500
C4200       C  0.13168694  0.51647857  0.16247750     0.27200
H4201       H  0.17641515  0.48717808  0.16691441     0.13000
N4202       N  0.16810055  0.48408817  0.21993034    -0.82700
H4203       H  0.11005750  0.52374269  0.19561362     0.17800
N4204       N  0.11974537  0.52768073  0.14309518    -0.81300
H4205       H  0.18093165  0.47674971  0.21017305     0.33500
H4206       H  0.17595536  0.49351229  0.23303553     0.37900
H4207       H  0.10609614  0.53430657  0.15228178     0.33400
H4208       H  0.13058045  0.53818377  0.13652539     0.30100
H4209       H  0.21148457  0.52105590  0.13281465     0.33400
H4210       H  0.18936553  0.52977358  0.14959993     0.30100
H4211       H  0.13254205  0.50903265  0.04542246     0.38000
H4212       H  0.11957020  0.49329545  0.06495398     0.33500
C4213       C  0.07537325  0.42761472  0.37108505    -0.20300
C4214       C  0.05568712  0.41709014  0.36631683     0.35900
C4215       C  0.05477124  0.39831603  0.37468924    -0.26300
C4216       C  0.07310741  0.38983989  0.38748706     0.02400
C4217       C  0.09285105  0.40014695  0.39177945     0.27200
C4218       C  0.09370478  0.41890586  0.38381177    -0.25400
N4219       N  0.03668750  0.42544665  0.35319632    -0.82800
H4220       H  0.03973546  0.39021377  0.37117315     0.13000
C4221       C  0.07195096  0.36992856  0.39544583     0.02300
N4222       N  0.11217237  0.39135327  0.40358059    -0.81300
H4223       H  0.10902286  0.42667515  0.38711282     0.17800
C4224       C  0.07879706  0.35634168  0.37680497    -0.26200
C4225       C  0.07969552  0.33741785  0.38405907     0.35800
C4226       C  0.07433756  0.33197559  0.41100738    -0.20200
C4227       C  0.06644316  0.34563029  0.42925432    -0.25500
C4228       C  0.06514153  0.36452840  0.42169589     0.27200
H4229       H  0.08361027  0.36058076  0.35650008     0.13000
N4230       N  0.08590292  0.32375677  0.36403375    -0.82700
H4231       H  0.06184752  0.34166334  0.44974003     0.17800
N4232       N  0.05698190  0.37826441  0.44054690    -0.81300
H4233       H  0.08951197  0.33007635  0.34541816     0.33500
H4234       H  0.07197837  0.31520900  0.36075750     0.37900
H4235       H  0.05226692  0.37200353  0.45883821     0.33400
H4236       H  0.07019931  0.38728023  0.44511279     0.30100
H4237       H  0.12556382  0.40070367  0.40472576     0.33400
H4238       H  0.10815947  0.38774638  0.42356012     0.30100
H4239       H  0.03056794  0.43586421  0.36607818     0.38000
H4240       H  0.02377320  0.41574181  0.35086547     0.33500
C4241       C  0.41875210  0.82998609  0.03539901    -0.20300
C4242       C  0.43079048  0.84272787  0.01906321     0.35900
C4243       C  0.42240433  0.86091245  0.01560357    -0.26300
C4244       C  0.40225205  0.86651576  0.02785920     0.02400
C4245       C  0.38933901  0.85340345  0.04218215     0.27200
C4246       C  0.39754771  0.83525519  0.04542772    -0.25400
N4247       N  0.45202097  0.83764668  0.00743780    -0.82800
H4248       H  0.43214194  0.87107313  0.00443396     0.13000
C4249       C  0.39649154  0.88658192  0.02922312     0.02300
N4250       N  0.36855838  0.85885273  0.05472195    -0.81300
H4251       H  0.38782825  0.82546533  0.05730383     0.17800
C4252       C  0.37669479  0.89319174  0.01729072    -0.26200
C4253       C  0.36947728  0.91167461  0.02145026     0.35800
C4254       C  0.38207237  0.92356187  0.03865975    -0.20200
C4255       C  0.40256345  0.91707409  0.04915809    -0.25500
C4256       C  0.40979724  0.89875760  0.04479923     0.27200
H4257       H  0.36663205  0.88375410  0.00518533     0.13000
N4258       N  0.34907844  0.91805557  0.00908821    -0.82700
H4259       H  0.41269567  0.92614039  0.06176650     0.17800
N4260       N  0.43018407  0.89222170  0.05710586    -0.81300
H4261       H  0.34131301  0.90725623  0.99837731     0.33500
H4262       H  0.35346568  0.92804266  0.99460259     0.37900
H4263       H  0.43814680  0.90295896  0.06773435     0.33400
H4264       H  0.42587030  0.88214297  0.07148735     0.30100
H4265       H  0.36106450  0.84752051  0.06444686     0.33400
H4266       H  0.37226371  0.86857585  0.06991121     0.30100
H4267       H  0.44893147  0.82757101  0.99254271     0.38000
H4268       H  0.45919475  0.84898295  0.99737615     0.33500
C4269       C  0.55037874  0.76033172  0.33507152    -0.20300
C4270       C  0.56205203  0.76516383  0.31103912     0.35900
C4271       C  0.55082231  0.76446015  0.28590817    -0.26300
C4272       C  0.52815151  0.75941799  0.28425611     0.02400
C4273       C  0.51626411  0.75526712  0.30818488     0.27200
C4274       C  0.52749351  0.75565709  0.33326376    -0.25400
N4275       N  0.58538407  0.77009261  0.31195001    -0.82800
H4276       H  0.55983444  0.76772502  0.26739616     0.13000
C4277       C  0.51705106  0.75868180  0.25728569     0.02300
N4278       N  0.49284379  0.75065434  0.30687551    -0.81300
H4279       H  0.51827138  0.75223870  0.35155844     0.17800
C4280       C  0.50836085  0.74174849  0.24761793    -0.26200
C4281       C  0.49850747  0.74044731  0.22166412     0.35800
C4282       C  0.49700280  0.75655436  0.20528700    -0.20200
C4283       C  0.50547914  0.77350372  0.21534357    -0.25500
C4284       C  0.51548190  0.77472328  0.24104961     0.27200
H4285       H  0.50981062  0.72941498  0.26013253     0.13000
N4286       N  0.49072728  0.72278084  0.21167791    -0.82700
H4287       H  0.50431694  0.78595986  0.20305016     0.17800
N4288       N  0.52407946  0.79220673  0.25076965    -0.81300
H4289       H  0.49292753  0.71242876  0.22634037     0.33500
H4290       H  0.50086814  0.71909726  0.19518471     0.37900
H4291       H  0.52186403  0.80263381  0.23622651     0.33400
H4292       H  0.51456899  0.79608334  0.26770990     0.30100
H4293       H  0.48654433  0.74789331  0.32628326     0.33400
H4294       H  0.48431047  0.76237974  0.29975178     0.30100
H4295       H  0.58654132  0.78315599  0.32124051     0.38000
H4296       H  0.59175704  0.77177465  0.29230960     0.33500
C4297       C  0.62912408  0.74841997  0.91426087    -0.20300
C4298       C  0.60813668  0.74557780  0.90168268     0.35900
C4299       C  0.58850929  0.74733705  0.91691822    -0.26300
C4300       C  0.58943853  0.75170194  0.94454988     0.02400
C4301       C  0.61029057  0.75436985  0.95743499     0.27200
C4302       C  0.63002230  0.75300352  0.94196844    -0.25400
N4303       N  0.60663262  0.74122875  0.87331289    -0.82800
H4304       H  0.57243444  0.74507812  0.90720230     0.13000
C4305       C  0.56840183  0.75192848  0.96000130     0.02300
N4306       N  0.61136064  0.75766192  0.98624301    -0.81300
H4307       H  0.64613958  0.75507444  0.95164347     0.17800
C4308       C  0.55944153  0.73492534  0.96848762    -0.26200
C4309       C  0.53966830  0.73431971  0.98376649     0.35800
C4310       C  0.52894715  0.75116198  0.99096616    -0.20200
C4311       C  0.53722928  0.76810876  0.98090928    -0.25500
C4312       C  0.55691406  0.76864681  0.96533570     0.27200
H4313       H  0.56806530  0.72211385  0.96333805     0.13000
N4314       N  0.53053805  0.71672121  0.99217066    -0.82700
H4315       H  0.52886295  0.78101968  0.98611212     0.17800
N4316       N  0.56510638  0.78598166  0.95466541    -0.81300
H4317       H  0.54052893  0.70573153  0.98525434     0.33500
H4318       H  0.51493282  0.71520433  0.98277731     0.37900
H4319       H  0.55436270  0.79689708  0.95997738     0.33400
H4320       H  0.58048645  0.78886939  0.96384774     0.30100
H4321       H  0.62802507  0.75870871  0.99261013     0.33400
H4322       H  0.60396231  0.77054653  0.99025165     0.30100
H4323       H  0.59696902  0.75150215  0.86391238     0.38000
H4324       H  0.59821590  0.72853553  0.87130211     0.33500
C4325       C  0.28370728  0.75254849  0.24762974    -0.20300
C4326       C  0.28286515  0.74671645  0.22023403     0.35900
C4327       C  0.30276736  0.74648207  0.20501623    -0.26300
C4328       C  0.32308183  0.75195807  0.21684410     0.02400
C4329       C  0.32391319  0.75761399  0.24413615     0.27200
C4330       C  0.30419513  0.75787131  0.25926517    -0.25400
N4331       N  0.26186706  0.74199837  0.20766674    -0.82800
H4332       H  0.30244010  0.74239030  0.18380821     0.13000
C4333       C  0.34335150  0.75291663  0.20019458     0.02300
N4334       N  0.34479779  0.76324425  0.25619718    -0.81300
H4335       H  0.30485731  0.76213334  0.28039885     0.17800
C4336       C  0.35212240  0.77047500  0.19422515    -0.26200
C4337       C  0.37204523  0.77224287  0.17956878     0.35800
C4338       C  0.38303984  0.75601281  0.17026302    -0.20200
C4339       C  0.37435648  0.73839569  0.17673963    -0.25500
C4340       C  0.35455885  0.73669675  0.19181001     0.27200
H4341       H  0.34345451  0.78282016  0.20134790     0.13000
N4342       N  0.38122640  0.79039923  0.17435342    -0.82700
H4343       H  0.38276050  0.72595137  0.16955997     0.17800
N4344       N  0.34577899  0.71867325  0.19866046    -0.81300
H4345       H  0.37087955  0.80079568  0.18237731     0.33500
H4346       H  0.39646656  0.79131218  0.18473751     0.37900
H4347       H  0.35601979  0.70815956  0.19076784     0.33400
H4348       H  0.34636095  0.71739141  0.21981114     0.30100
H4349       H  0.34244636  0.76724051  0.27644354     0.33400
H4350       H  0.35534218  0.75162496  0.25644798     0.30100
H4351       H  0.25651656  0.72936114  0.21589043     0.38000
H4352       H  0.26408252  0.73959456  0.18687229     0.33500
C4353       C  0.42199325  0.42341530  0.24675277    -0.20300
C4354       C  0.39951495  0.41829294  0.24142307     0.35900
C4355       C  0.39207509  0.40028001  0.24789990    -0.26300
C4356       C  0.40642711  0.38726917  0.25998462     0.02400
C4357       C  0.42834995  0.39281645  0.26727793     0.27200
C4358       C  0.43591581  0.41084042  0.26060386    -0.25400
N4359       N  0.38439775  0.43130520  0.22896417    -0.82800
H4360       H  0.37529409  0.39606247  0.24218565     0.13000
C4361       C  0.39948832  0.36732671  0.26038412     0.02300
N4362       N  0.44304652  0.37987514  0.28058679    -0.81300
H4363       H  0.45304972  0.41476157  0.26509592     0.17800
C4364       C  0.41269286  0.35457070  0.24605231    -0.26200
C4365       C  0.40529844  0.33642810  0.24113509     0.35800
C4366       C  0.38390192  0.33064499  0.25030897    -0.20200
C4367       C  0.37124420  0.34298950  0.26638834    -0.25500
C4368       C  0.37886693  0.36131446  0.27153423     0.27200
H4369       H  0.42851283  0.35896981  0.23734962     0.13000
N4370       N  0.41955418  0.32402814  0.22620368    -0.82700
H4371       H  0.35498566  0.33866340  0.27386589     0.17800
N4372       N  0.36556734  0.37397328  0.28741618    -0.81300
H4373       H  0.42282822  0.32998313  0.20723607     0.33500
H4374       H  0.43473745  0.32284294  0.23664058     0.37900
H4375       H  0.35088999  0.36746598  0.29406141     0.33400
H4376       H  0.37476393  0.37733295  0.30482613     0.30100
H4377       H  0.45863597  0.38599615  0.28433741     0.33400
H4378       H  0.43604234  0.37679346  0.29952878     0.30100
H4379       H  0.38226327  0.44241153  0.24248569     0.38000
H4380       H  0.36858699  0.42533242  0.22619273     0.33500
C4381       C  0.50603350  0.50427701  0.08289570    -0.20300
C4382       C  0.49367102  0.50505712  0.05843475     0.35900
C4383       C  0.50517621  0.50531524  0.03342822    -0.26300
C4384       C  0.52865210  0.50463463  0.03251140     0.02400
C4385       C  0.54098791  0.50380413  0.05681125     0.27200
C4386       C  0.52956671  0.50361311  0.08174822    -0.25400
N4387       N  0.46958549  0.50515640  0.05902758    -0.82800
H4388       H  0.49585607  0.50596936  0.01456116     0.13000
C4389       C  0.54025333  0.50556041  0.00600278     0.02300
N4390       N  0.56506896  0.50340045  0.05602151    -0.81300
H4391       H  0.53910583  0.50296708  0.10045526     0.17800
C4392       C  0.54655940  0.52299296  0.99593058    -0.26200
C4393       C  0.55741403  0.52463596  0.97072577     0.35800
C4394       C  0.56196239  0.50846189  0.95529189    -0.20200
C4395       C  0.55621919  0.49093619  0.96582858    -0.25500
C4396       C  0.54528878  0.48933350  0.99106586     0.27200
H4397       H  0.54290274  0.53535440  0.00779153     0.13000
N4398       N  0.56392670  0.54264507  0.96078065    -0.82700
H4399       H  0.55962221  0.47853248  0.95395116     0.17800
N4400       N  0.53879979  0.47139436  0.00128955    -0.81300
H4401       H  0.55931932  0.55307850  0.97453592     0.33500
H4402       H  0.58141894  0.54286575  0.95963440     0.37900
H4403       H  0.54344202  0.46090238  0.98764363     0.33400
H4404       H  0.54779476  0.46898492  0.01915166     0.30100
H4405       H  0.57164202  0.50310797  0.07570631     0.33400
H4406       H  0.56992447  0.49095222  0.04670324     0.30100
H4407       H  0.46433193  0.49245001  0.06716521     0.38000
H4408       H  0.46311247  0.50578869  0.03931035     0.33500
C4409       C  0.38376475  0.50002424  0.11512536    -0.20300
C4410       C  0.38382980  0.50744573  0.08856645     0.35900
C4411       C  0.36342489  0.50912686  0.07458609    -0.26300
C4412       C  0.34326067  0.50365819  0.08684853     0.02400
C4413       C  0.34316139  0.49687082  0.11359703     0.27200
C4414       C  0.36344632  0.49492822  0.12736319    -0.25400
N4415       N  0.40448933  0.51288411  0.07579666    -0.82800
H4416       H  0.36323761  0.51430542  0.05391540     0.13000
C4417       C  0.32239678  0.50396466  0.07105186     0.02300
N4418       N  0.32239128  0.49201950  0.12660872    -0.81300
H4419       H  0.36334296  0.48971806  0.14801782     0.17800
C4420       C  0.31171286  0.48702307  0.06557457    -0.26200
C4421       C  0.29198011  0.48646767  0.05031967     0.35800
C4422       C  0.28308195  0.50322334  0.04002165    -0.20200
C4423       C  0.29333473  0.52025900  0.04641945    -0.25500
C4424       C  0.31303041  0.52078260  0.06189800     0.27200
H4425       H  0.31894018  0.47419012  0.07310966     0.13000
N4426       N  0.28095426  0.46900777  0.04523193    -0.82700
H4427       H  0.28641847  0.53310292  0.03852724     0.17800
N4428       N  0.32369110  0.53821167  0.06814343    -0.81300
H4429       H  0.28980873  0.45803238  0.05410460     0.33500
H4430       H  0.26534956  0.46949618  0.05487733     0.37900
H4431       H  0.31467929  0.54927704  0.05975671     0.33400
H4432       H  0.32315088  0.53996947  0.08923145     0.30100
H4433       H  0.32525396  0.48720576  0.14634159     0.33400
H4434       H  0.31291734  0.50419928  0.12847006     0.30100
H4435       H  0.41421406  0.50090054  0.07325425     0.38000
H4436       H  0.40148398  0.51816688  0.05635117     0.33500
C4437       C  0.52927041  0.50330545  0.29232970    -0.20300
C4438       C  0.54508521  0.48875442  0.29136914     0.35900
C4439       C  0.56467677  0.49019329  0.30685297    -0.26300
C4440       C  0.56848058  0.50562148  0.32377520     0.02400
C4441       C  0.55209920  0.51978137  0.32559770     0.27200
C4442       C  0.53284721  0.51865635  0.30933332    -0.25400
N4443       N  0.54163799  0.47296943  0.27382231    -0.82800
H4444       H  0.57739315  0.47950312  0.30501141     0.13000
C4445       C  0.59019033  0.50709136  0.33827148     0.02300
N4446       N  0.55513558  0.53524437  0.34381481    -0.81300
H4447       H  0.52059248  0.52978637  0.30982797     0.17800
C4448       C  0.60286607  0.52349327  0.33589660    -0.26200
C4449       C  0.62360183  0.52534156  0.34903418     0.35800
C4450       C  0.63220034  0.51018159  0.36382535    -0.20200
C4451       C  0.61993969  0.49359056  0.36547438    -0.25500
C4452       C  0.59874473  0.49203906  0.35347871     0.27200
H4453       H  0.59656586  0.53489710  0.32372812     0.13000
N4454       N  0.63592051  0.54250073  0.34748880    -0.82700
H4455       H  0.62639358  0.48214872  0.37747772     0.17800
N4456       N  0.58562363  0.47546071  0.35731308    -0.81300
H4457       H  0.62709184  0.55235361  0.33612606     0.33500
H4458       H  0.65079638  0.53980301  0.33696640     0.37900
H4459       H  0.59437234  0.46573843  0.36899999     0.33400
H4460       H  0.57137967  0.47916016  0.36846445     0.30100
H4461       H  0.54161832  0.54445884  0.34251641     0.33400
H4462       H  0.55512807  0.52999099  0.36361152     0.30100
H4463       H  0.54214050  0.47770887  0.25375883     0.38000
H4464       H  0.55473005  0.46340089  0.27584592     0.33500
C4465       C  0.48353086  0.58030538  0.16104599    -0.20300
C4466       C  0.46898721  0.58925344  0.14240685     0.35900
C4467       C  0.47203522  0.60807686  0.13604351    -0.26300
C4468       C  0.48917885  0.61854046  0.14792538     0.02400
C4469       C  0.50377828  0.60993959  0.16657833     0.27200
C4470       C  0.50078611  0.59094722  0.17303563    -0.25400
N4471       N  0.45060216  0.57954399  0.13027483    -0.82800
H4472       H  0.46057452  0.61470156  0.12197544     0.13000
C4473       C  0.49083816  0.63863118  0.14102471     0.02300
N4474       N  0.52160286  0.62050438  0.17874018    -0.81300
H4475       H  0.51204684  0.58445784  0.18743495     0.17800
C4476       C  0.48596375  0.65200465  0.16092779    -0.26200
C4477       C  0.48420702  0.67095625  0.15423835     0.35800
C4478       C  0.48756067  0.67681739  0.12709210    -0.20200
C4479       C  0.49348878  0.66341857  0.10746529    -0.25500
C4480       C  0.49504021  0.64441428  0.11413078     0.27200
H4481       H  0.48267392  0.64763143  0.18161683     0.13000
N4482       N  0.47884138  0.68413094  0.17512467    -0.82700
H4483       H  0.49605367  0.66765211  0.08657570     0.17800
N4484       N  0.50034105  0.63085970  0.09358280    -0.81300
H4485       H  0.46349357  0.68029937  0.18370746     0.33500
H4486       H  0.49108761  0.68316797  0.19023645     0.37900
H4487       H  0.50273649  0.63730492  0.07477422     0.33400
H4488       H  0.51563590  0.62476118  0.09884491     0.30100
H4489       H  0.53088353  0.61217554  0.19200489     0.33400
H4490       H  0.53251094  0.62450852  0.16317715     0.30100
H4491       H  0.43579512  0.58644347  0.13555858     0.38000
H4492       H  0.45240636  0.58020999  0.10916146     0.33500
C4493       C  0.42652331  0.92212797  0.75070008    -0.20300
C4494       C  0.44158986  0.90927740  0.76245157     0.35900
C4495       C  0.43447702  0.89081951  0.76720081    -0.26300
C4496       C  0.41289894  0.88482157  0.75965646     0.02400
C4497       C  0.39758521  0.89794957  0.74916721     0.27200
C4498       C  0.40444906  0.91641884  0.74528293    -0.25400
N4499       N  0.46428580  0.91466230  0.76823447    -0.82800
H4500       H  0.44616539  0.88080869  0.77553509     0.13000
C4501       C  0.40710763  0.86458756  0.75971052     0.02300
N4502       N  0.37542630  0.89229666  0.74114264    -0.81300
H4503       H  0.39270704  0.92626263  0.73662000     0.17800
C4504       C  0.38711345  0.85856309  0.77198662    -0.26200
C4505       C  0.37858866  0.84051972  0.76743840     0.35800
C4506       C  0.39052805  0.82806757  0.75043116    -0.20200
C4507       C  0.41159339  0.83363908  0.74034476    -0.25500
C4508       C  0.41987747  0.85171782  0.74451712     0.27200
H4509       H  0.37755709  0.86833254  0.78414931     0.13000
N4510       N  0.35734872  0.83529388  0.77886717    -0.82700
H4511       H  0.42127964  0.82410963  0.72793211     0.17800
N4512       N  0.44068448  0.85728067  0.73219444    -0.81300
H4513       H  0.35017799  0.84646298  0.78938920     0.33500
H4514       H  0.36040087  0.82496928  0.79333646     0.37900
H4515       H  0.44814322  0.84609797  0.72200179     0.33400
H4516       H  0.43703904  0.86729067  0.71745384     0.30100
H4517       H  0.36619129  0.90366132  0.73406741     0.33400
H4518       H  0.37706402  0.88310578  0.72475666     0.30100
H4519       H  0.47215263  0.91747625  0.74969911     0.38000
H4520       H  0.47308429  0.90361849  0.77700285     0.33500
C4521       C  0.31126088  0.75536960  0.58085767    -0.20300
C4522       C  0.30116696  0.77137077  0.56927260     0.35900
C4523       C  0.29023722  0.76989429  0.54421039    -0.26300
C4524       C  0.28936639  0.75297002  0.53025788     0.02400
C4525       C  0.29993635  0.73711864  0.54114058     0.27200
C4526       C  0.31089493  0.73848900  0.56633848    -0.25400
N4527       N  0.30213565  0.78911487  0.58281062    -0.82800
H4528       H  0.28248057  0.78207878  0.53528927     0.13000
C4529       C  0.27794748  0.75246816  0.50371276     0.02300
N4530       N  0.29915155  0.71968713  0.52677535    -0.81300
H4531       H  0.31854752  0.72619118  0.57502593     0.17800
C4532       C  0.29082556  0.74994606  0.48029327    -0.26200
C4533       C  0.28094277  0.75060901  0.45458228     0.35800
C4534       C  0.25759221  0.75358920  0.45213505    -0.20200
C4535       C  0.24475787  0.75647210  0.47567203    -0.25500
C4536       C  0.25474365  0.75587246  0.50152903     0.27200
H4537       H  0.30875572  0.74781599  0.48196960     0.13000
N4538       N  0.29482403  0.74868220  0.43097415    -0.82700
H4539       H  0.22686224  0.75870137  0.47393604     0.17800
N4540       N  0.24148281  0.75858941  0.52560404    -0.81300
H4541       H  0.30301757  0.73584107  0.43205330     0.33500
H4542       H  0.30697062  0.75916438  0.43147414     0.37900
H4543       H  0.22474645  0.76107687  0.52050667     0.33400
H4544       H  0.24178346  0.74615085  0.53658937     0.30100
H4545       H  0.30776631  0.70939627  0.53754012     0.33400
H4546       H  0.28239419  0.71548254  0.52594362     0.30100
H4547       H  0.31892728  0.79324707  0.58324101     0.38000
H4548       H  0.29350322  0.79926100  0.57177941     0.33500
C4549       C  0.42456551  0.75282706  0.61523739    -0.20300
C4550       C  0.43438196  0.76915803  0.60478616     0.35900
C4551       C  0.45340560  0.76783567  0.58842056    -0.26300
C4552       C  0.46284451  0.75048666  0.58242871     0.02400
C4553       C  0.45289930  0.73407356  0.59224626     0.27200
C4554       C  0.43364695  0.73538914  0.60851941    -0.25400
N4555       N  0.42496596  0.78708615  0.61056318    -0.82800
H4556       H  0.46103718  0.78043058  0.58059670     0.13000
C4557       C  0.48324787  0.74998089  0.56582732     0.02300
N4558       N  0.46253686  0.71626034  0.58585965    -0.81300
H4559       H  0.42612342  0.72285213  0.61664637     0.17800
C4560       C  0.50370166  0.74529096  0.57802453    -0.26200
C4561       C  0.52384202  0.74682906  0.56346870     0.35800
C4562       C  0.52314756  0.75297495  0.53629471    -0.20200
C4563       C  0.50255654  0.75711967  0.52401064    -0.25500
C4564       C  0.48254965  0.75568198  0.53854643     0.27200
H4565       H  0.50396480  0.74108270  0.59915938     0.13000
N4566       N  0.54491310  0.74280552  0.57633414    -0.82700
H4567       H  0.50210311  0.76150749  0.50295011     0.17800
N4568       N  0.46152769  0.76024570  0.52594863    -0.81300
H4569       H  0.55405190  0.75520936  0.57723188     0.33500
H4570       H  0.54240382  0.73855544  0.59641763     0.37900
H4571       H  0.46397987  0.76435869  0.50579359     0.33400
H4572       H  0.45188560  0.74810370  0.52532930     0.30100
H4573       H  0.45328133  0.70557737  0.59489695     0.33400
H4574       H  0.46126369  0.71434355  0.56484918     0.30100
H4575       H  0.42088820  0.79342391  0.59210810     0.38000
H4576       H  0.43725853  0.79517411  0.62005495     0.33500
C4577       C  0.27055043  0.75774520  0.78486248    -0.20300
C4578       C  0.24935915  0.76035988  0.77274824     0.35900
C4579       C  0.23020803  0.76027527  0.78912413    -0.26300
C4580       C  0.23198097  0.75757021  0.81716127     0.02400
C4581       C  0.25318724  0.75569205  0.82943806     0.27200
C4582       C  0.27243376  0.75593427  0.81307171    -0.25400
N4583       N  0.24742914  0.76283384  0.74383960    -0.82800
H4584       H  0.21379133  0.76178107  0.77997564     0.13000
C4585       C  0.21132578  0.75554376  0.83310108     0.02300
N4586       N  0.25495412  0.75315898  0.85832094    -0.81300
H4587       H  0.28880999  0.75399821  0.82213971     0.17800
C4588       C  0.20598131  0.73802201  0.84355870    -0.26200
C4589       C  0.18635170  0.73529465  0.85863893     0.35800
C4590       C  0.17199105  0.75063210  0.86368631    -0.20200
C4591       C  0.17712478  0.76804109  0.85220020    -0.25500
C4592       C  0.19671907  0.77064724  0.83700074     0.27200
H4593       H  0.21717205  0.72641690  0.83976319     0.13000
N4594       N  0.18106200  0.71705520  0.86879138    -0.82700
H4595       H  0.16628130  0.77986841  0.85587833     0.17800
N4596       N  0.20208196  0.78859820  0.82589500    -0.81300
H4597       H  0.19359688  0.70751074  0.86362393     0.33500
H4598       H  0.16645837  0.71260824  0.85901207     0.37900
H4599       H  0.18951746  0.79823940  0.83053252     0.33400
H4600       H  0.21667166  0.79328788  0.83546185     0.30100
H4601       H  0.27173973  0.75181693  0.86406528     0.33400
H4602       H  0.24894938  0.76526344  0.86764019     0.30100
H4603       H  0.25549513  0.77528634  0.73885425     0.38000
H4604       H  0.23064522  0.76440976  0.73820916     0.33500
C4605       C  0.38221564  0.75505496  0.82535944    -0.20300
C4606       C  0.40232114  0.74608198  0.83339282     0.35900
C4607       C  0.40909256  0.74686428  0.86069964    -0.26300
C4608       C  0.39668637  0.75678472  0.88004270     0.02400
C4609       C  0.37697578  0.76606118  0.87217514     0.27200
C4610       C  0.36993921  0.76512849  0.84494400    -0.25400
N4611       N  0.41610476  0.73654520  0.81384287    -0.82800
H4612       H  0.42437795  0.73994062  0.86693518     0.13000
C4613       C  0.40458470  0.75716796  0.90855672     0.02300
N4614       N  0.36407347  0.77618521  0.89196948    -0.81300
H4615       H  0.35459524  0.77211435  0.83912841     0.17800
C4616       C  0.41210250  0.77393915  0.91992960    -0.26200
C4617       C  0.42061540  0.77461737  0.94659403     0.35800
C4618       C  0.42130979  0.75807813  0.96228842    -0.20200
C4619       C  0.41330268  0.74141605  0.95080900    -0.25500
C4620       C  0.40506234  0.74078061  0.92413624     0.27200
H4621       H  0.41164218  0.78648367  0.90774632     0.13000
N4622       N  0.42792230  0.79209144  0.95782141    -0.82700
H4623       H  0.41372394  0.72870403  0.96260090     0.17800
N4624       N  0.39718951  0.72354242  0.91272568    -0.81300
H4625       H  0.42424610  0.80301042  0.94452974     0.33500
H4626       H  0.44538815  0.79165639  0.95917562     0.37900
H4627       H  0.39879585  0.71272580  0.92677141     0.33400
H4628       H  0.38005799  0.72502664  0.90887121     0.30100
H4629       H  0.35006659  0.78231146  0.88289839     0.33400
H4630       H  0.35800217  0.76658260  0.90611127     0.30100
H4631       H  0.42259399  0.74659226  0.80066719     0.38000
H4632       H  0.42987556  0.73031138  0.82328498     0.33500
C4633       C  0.38538032  0.42610055  0.54045728    -0.20300
C4634       C  0.37373367  0.41344382  0.52348680     0.35900
C4635       C  0.38142307  0.39490193  0.52121338    -0.26300
C4636       C  0.40082462  0.38893097  0.53480472     0.02400
C4637       C  0.41328838  0.40184464  0.55011826     0.27200
C4638       C  0.40556480  0.42020467  0.55261306    -0.25400
N4639       N  0.35382647  0.41915126  0.50939200    -0.82800
H4640       H  0.37204214  0.38493684  0.50920788     0.13000
C4641       C  0.40711608  0.36888330  0.53493488     0.02300
N4642       N  0.43334059  0.39607429  0.56395426    -0.81300
H4643       H  0.41507638  0.42980539  0.56508966     0.17800
C4644       C  0.42759733  0.36317399  0.52359334    -0.26200
C4645       C  0.43547009  0.34476909  0.52670495     0.35800
C4646       C  0.42269600  0.33187810  0.54195581    -0.20200
C4647       C  0.40168623  0.33752082  0.55212915    -0.25500
C4648       C  0.39383982  0.35582651  0.54890760     0.27200
H4649       H  0.43775159  0.37330020  0.51291113     0.13000
N4650       N  0.45684283  0.33952533  0.51565436    -0.82700
H4651       H  0.39161368  0.32772912  0.56356499     0.17800
N4652       N  0.37283465  0.36140930  0.56073221    -0.81300
H4653       H  0.46462368  0.35095128  0.50651055     0.33500
H4654       H  0.45386414  0.32991921  0.50008686     0.37900
H4655       H  0.36505065  0.35013386  0.57025865     0.33400
H4656       H  0.37627490  0.37116031  0.57597402     0.30100
H4657       H  0.44067052  0.40728543  0.57420649     0.33400
H4658       H  0.42872735  0.38641530  0.57880491     0.30100
H4659       H  0.35868270  0.42882017  0.49466888     0.38000
H4660       H  0.34681726  0.40794079  0.49881537     0.33500
C4661       C  0.30554700  0.50515596  0.70240059    -0.20300
C4662       C  0.31797589  0.50700259  0.72666295     0.35900
C4663       C  0.30660285  0.50688367  0.75178175    -0.26300
C4664       C  0.28318607  0.50514801  0.75289630     0.02400
C4665       C  0.27074989  0.50409806  0.72867759     0.27200
C4666       C  0.28208567  0.50377531  0.70373381    -0.25400
N4667       N  0.34196373  0.50866557  0.72576046    -0.82800
H4668       H  0.31596949  0.50807784  0.77056456     0.13000
C4669       C  0.27170732  0.50526129  0.77950557     0.02300
N4670       N  0.24665342  0.50407256  0.72947256    -0.81300
H4671       H  0.27249844  0.50272301  0.68509235     0.17800
C4672       C  0.26699176  0.52238060  0.79181164    -0.26200
C4673       C  0.25608292  0.52325063  0.81705658     0.35800
C4674       C  0.24970402  0.50655863  0.83020677    -0.20200
C4675       C  0.25410361  0.48940480  0.81753665    -0.25500
C4676       C  0.26526830  0.48857840  0.79237717     0.27200
H4677       H  0.27190161  0.53510943  0.78163586     0.13000
N4678       N  0.25146134  0.54102097  0.82935881    -0.82700
H4679       H  0.24953980  0.47660118  0.82774524     0.17800
N4680       N  0.27088081  0.47090494  0.78039945    -0.81300
H4681       H  0.25746107  0.55185238  0.81720518     0.33500
H4682       H  0.23405857  0.54255626  0.83030325     0.37900
H4683       H  0.26553997  0.46000618  0.79287379     0.33400
H4684       H  0.26201858  0.46958118  0.76221202     0.30100
H4685       H  0.24006193  0.50390169  0.70979122     0.33400
H4686       H  0.24139138  0.49176548  0.73873275     0.30100
H4687       H  0.34835442  0.49621598  0.71790898     0.38000
H4688       H  0.34847702  0.51006689  0.74538174     0.33500
C4689       C  0.42487770  0.50787591  0.66505637    -0.20300
C4690       C  0.44626121  0.50173088  0.65655694     0.35900
C4691       C  0.46437765  0.50331439  0.67442244    -0.26300
C4692       C  0.46163766  0.51129460  0.70016491     0.02400
C4693       C  0.44064983  0.51831047  0.70821092     0.27200
C4694       C  0.42239435  0.51653944  0.69050054    -0.25400
N4695       N  0.44956864  0.49413723  0.62978693    -0.82800
H4696       H  0.48075480  0.49827035  0.66834742     0.13000
C4697       C  0.48084575  0.51136513  0.71880050     0.02300
N4698       N  0.43791900  0.52683955  0.73446025    -0.81300
H4699       H  0.40605022  0.52145244  0.69690203     0.17800
C4700       C  0.49072118  0.52828927  0.72629792    -0.26200
C4701       C  0.50966158  0.52862948  0.74318744     0.35800
C4702       C  0.51886997  0.51162652  0.75228476    -0.20200
C4703       C  0.50863475  0.49475552  0.74495858    -0.25500
C4704       C  0.48963799  0.49446012  0.72841048     0.27200
H4705       H  0.48365395  0.54120324  0.71885269     0.13000
N4706       N  0.51927033  0.54609157  0.75142862    -0.82700
H4707       H  0.51559141  0.48169900  0.75202440     0.17800
N4708       N  0.47921309  0.47708557  0.72121991    -0.81300
H4709       H  0.51718940  0.54728333  0.77246134     0.33500
H4710       H  0.51054363  0.55720673  0.74274075     0.37900
H4711       H  0.48790252  0.46590481  0.72978007     0.33400
H4712       H  0.46318688  0.47700126  0.72981450     0.30100
H4713       H  0.42142858  0.53141710  0.73710224     0.33400
H4714       H  0.44072339  0.51660419  0.74914080     0.30100
H4715       H  0.44636303  0.50475749  0.61581920     0.38000
H4716       H  0.46627432  0.49019747  0.62694398     0.33500
C4717       C  0.27240212  0.50261083  0.49610625    -0.20300
C4718       C  0.25113493  0.50102404  0.50838173     0.35900
C4719       C  0.23199960  0.50179750  0.49213930    -0.26300
C4720       C  0.23385938  0.50426777  0.46409442     0.02400
C4721       C  0.25507452  0.50568915  0.45169203     0.27200
C4722       C  0.27435329  0.50471215  0.46794802    -0.25400
N4723       N  0.24914351  0.49889314  0.53735219    -0.82800
H4724       H  0.21554049  0.50077235  0.50134867     0.13000
C4725       C  0.21317039  0.50584493  0.44829398     0.02300
N4726       N  0.25684029  0.50845590  0.42285888    -0.81300
H4727       H  0.29080485  0.50617141  0.45886392     0.17800
C4728       C  0.20548883  0.52354409  0.44114690    -0.26200
C4729       C  0.18521274  0.52571455  0.42718864     0.35800
C4730       C  0.17271463  0.50973185  0.41992338    -0.20200
C4731       C  0.18022054  0.49204617  0.42800618    -0.25500
C4732       C  0.20041992  0.48996109  0.44212614     0.27200
H4733       H  0.21526920  0.53567103  0.44674737     0.13000
N4734       N  0.17727303  0.54402985  0.42044755    -0.82700
H4735       H  0.17078290  0.47974673  0.42239167     0.17800
N4736       N  0.20818206  0.47182903  0.45008963    -0.81300
H4737       H  0.18853354  0.55419573  0.42715546     0.33500
H4738       H  0.16233770  0.54620368  0.43111045     0.37900
H4739       H  0.19674024  0.46157948  0.44415966     0.33400
H4740       H  0.22303983  0.46915794  0.43950767     0.30100
H4741       H  0.27365048  0.50952350  0.41706699     0.33400
H4742       H  0.25048346  0.49655973  0.41332933     0.30100
H4743       H  0.25626537  0.48608270  0.54250020     0.38000
H4744       H  0.23230019  0.49825578  0.54313712     0.33500
C4745       C  0.38203554  0.50136638  0.45928572    -0.20300
C4746       C  0.39469260  0.51606904  0.44754366     0.35900
C4747       C  0.40111104  0.51499709  0.42004977    -0.26300
C4748       C  0.39569147  0.49953609  0.40400705     0.02400
C4749       C  0.38324490  0.48486546  0.41541591     0.27200
C4750       C  0.37648885  0.48593635  0.44280970    -0.25400
N4751       N  0.40094176  0.53213716  0.46327772    -0.82800
H4752       H  0.41079127  0.52618476  0.41111054     0.13000
C4753       C  0.40353355  0.49887112  0.37534296     0.02300
N4754       N  0.37748384  0.46896367  0.39907376    -0.81300
H4755       H  0.36690535  0.47454416  0.45130509     0.17800
C4756       C  0.42059246  0.48645979  0.36803658    -0.26200
C4757       C  0.42940699  0.48608015  0.34147008     0.35800
C4758       C  0.42062302  0.49827325  0.32139379    -0.20200
C4759       C  0.40324077  0.51057345  0.32899370    -0.25500
C4760       C  0.39464483  0.51095529  0.35564785     0.27200
H4761       H  0.42740967  0.47727521  0.38339217     0.13000
N4762       N  0.44728017  0.47337821  0.33509994    -0.82700
H4763       H  0.39619306  0.51997300  0.31409849     0.17800
N4764       N  0.37684716  0.52352704  0.36284443    -0.81300
H4765       H  0.45069906  0.46468984  0.35160347     0.33500
H4766       H  0.46174828  0.48130416  0.33200477     0.37900
H4767       H  0.37213476  0.53155015  0.34609497     0.33400
H4768       H  0.36289491  0.51549678  0.36809785     0.30100
H4769       H  0.36835930  0.45931598  0.41047566     0.33400
H4770       H  0.36687300  0.47354174  0.38356519     0.30100
H4771       H  0.41334334  0.52793326  0.47695003     0.38000
H4772       H  0.40839960  0.54222527  0.45094547     0.33500
C4773       C  0.31434597  0.58148852  0.62390863    -0.20300
C4774       C  0.32150589  0.58914507  0.64903033     0.35900
C4775       C  0.31842228  0.60823829  0.65422435    -0.26300
C4776       C  0.30780091  0.61990707  0.63538388     0.02400
C4777       C  0.29939039  0.61215449  0.61110358     0.27200
C4778       C  0.30275295  0.59309723  0.60560712    -0.25400
N4779       N  0.33205540  0.57763993  0.66917204    -0.82800
H4780       H  0.32478266  0.61417626  0.67295335     0.13000
C4781       C  0.30683482  0.64031901  0.64101365     0.02300
N4782       N  0.28771731  0.62372419  0.59197954    -0.81300
H4783       H  0.29683090  0.58745947  0.58648588     0.17800
C4784       C  0.31658760  0.65281099  0.62260590    -0.26200
C4785       C  0.31877778  0.67184775  0.62892691     0.35800
C4786       C  0.31226387  0.67841602  0.65495905    -0.20200
C4787       C  0.30090615  0.66611741  0.67246121    -0.25500
C4788       C  0.29775504  0.64726095  0.66548289     0.27200
H4789       H  0.32305427  0.64760420  0.60346636     0.13000
N4790       N  0.32771248  0.68445628  0.60902644    -0.82700
H4791       H  0.29506149  0.67103206  0.69204523     0.17800
N4792       N  0.28564226  0.63501687  0.68328166    -0.81300
H4793       H  0.33167029  0.67740582  0.59104426     0.33500
H4794       H  0.31503300  0.69392458  0.60415197     0.37900
H4795       H  0.27983481  0.64226551  0.70033170     0.33400
H4796       H  0.27144692  0.63041230  0.67278658     0.30100
H4797       H  0.28264218  0.61594407  0.57509155     0.33400
H4798       H  0.27311432  0.62849352  0.60145301     0.30100
H4799       H  0.33671343  0.58550627  0.68615259     0.38000
H4800       H  0.32012117  0.56804038  0.67590135     0.33500
loop_ 
_geom_bond_atom_site_label_1 
_geom_bond_atom_site_label_2 
_geom_bond_distance 
_geom_bond_site_symmetry_2 
_ccdc_geom_bond_type 
Zr1           O2   2.440       .  S
Zr1           O3   2.452       .  S
Zr1           O4   2.446       .  S
Zr1           O7   2.419       .  S
Zr1           O9   2.374       .  S
Zr1          O10   2.386       .  S
Zr1          O11   2.410       .  S
Zr1          O12   2.404       .  S
O2           H58   0.990       .  S
O2           H66   0.990       .  S
O3           C23   1.286       .  A
O4           C25   1.285       .  A
O5          Zr15   2.412       .  S
O5           C24   1.281       .  A
O6          Zr14   2.430       .  S
O6           C25   1.284       .  A
O7           C24   1.282       .  A
O8          Zr16   2.404       .  S
O8           C23   1.279       .  A
O9          Zr14   2.391       .  S
O9          Zr16   2.385       .  S
O10         Zr15   2.388       .  S
O10         Zr16   2.377       .  S
O10          H45   0.967       .  S
O11         Zr14   2.389       .  S
O11         Zr31   2.405       .  S
O11          H48   0.965       .  S
O12         Zr15   2.383       .  S
O12         Zr31   2.392       .  S
Zr13         O38   2.439       .  S
Zr13         O32   2.434       .  S
Zr13         O40   2.465       .  S
Zr13         O28   2.439       .  S
Zr13         O19   2.405       .  S
Zr13         O20   2.410       .  S
Zr13         O21   2.390       .  S
Zr13         O22   2.377       .  S
Zr14         O33   2.435       .  S
Zr14         O26   2.434       .  S
Zr14         O27   2.398       .  S
Zr14         O20   2.401       .  S
Zr14         O21   2.394       .  S
Zr15         O17   2.435       .  S
Zr15         O39   2.437       .  S
Zr15         O41   2.405       .  S
Zr15         O19   2.389       .  S
Zr15         O22   2.388       .  S
Zr16         O42   2.435       .  S
Zr16         O43   2.437       .  S
Zr16         O18   2.437       .  S
Zr16         O19   2.397       .  S
Zr16         O20   2.377       .  S
O17          H54   0.990       .  S
O18          H49   0.990       .  S
O18          H63   0.990       .  S
O20          H46   0.966       .  S
O21         Zr31   2.373       .  S
O22         Zr31   2.371       .  S
O22          H47   0.966       .  S
C23        C4661   1.480       .  S
C24        C4689   1.471       .  S
C25        C4773   1.498       .  S
O26          H62   0.989       .  S
O27          C29   1.279       .  A
O28          C29   1.286       .  A
C29        C4717   1.456       .  S
O30         Zr31   2.438       .  S
O30          H59   0.991       .  S
Zr31         O34   2.438       .  S
Zr31         O35   2.440       .  S
Zr31         O36   2.435       .  S
O32          C37   1.285       .  A
O33          H50   0.990       .  S
O33          H65   0.990       .  S
O34          H51   0.990       .  S
O35          H55   0.990       .  S
O35          H64   0.990       .  S
O36          C37   1.284       .  A
C37        C4745   1.501       .  S
O38          H57   0.990       .  S
O38          H61   0.990       .  S
O39          H53   0.990       .  S
O39          H60   0.990       .  S
O40          C44   1.289       .  A
O41          C44   1.281       .  A
O42          H52   0.990       .  S
O43          H56   0.990       .  S
C44        C4633   1.497       .  S
Zr67         O68   2.441       .  S
Zr67         O69   2.441       .  S
Zr67         O70   2.443       .  S
Zr67         O73   2.430       .  S
Zr67         O75   2.377       .  S
Zr67         O76   2.383       .  S
Zr67         O77   2.405       .  S
Zr67         O78   2.404       .  S
O68         H124   0.990       .  S
O68         H132   0.990       .  S
O69          C89   1.285       .  A
O70          C91   1.285       .  A
O71         Zr81   2.399       .  S
O71          C90   1.279       .  A
O72         Zr80   2.442       .  S
O72          C91   1.286       .  A
O73          C90   1.284       .  A
O74         Zr82   2.399       .  S
O74          C89   1.278       .  A
O75         Zr80   2.386       .  S
O75         Zr82   2.384       .  S
O76         Zr81   2.386       .  S
O76         Zr82   2.372       .  S
O76         H111   0.967       .  S
O77         Zr80   2.392       .  S
O77         Zr97   2.395       .  S
O77         H114   0.965       .  S
O78         Zr81   2.389       .  S
O78         Zr97   2.399       .  S
Zr79        O104   2.447       .  S
Zr79         O98   2.427       .  S
Zr79        O106   2.459       .  S
Zr79         O94   2.440       .  S
Zr79         O85   2.399       .  S
Zr79         O86   2.407       .  S
Zr79         O87   2.390       .  S
Zr79         O88   2.378       .  S
Zr80         O99   2.435       .  S
Zr80         O92   2.434       .  S
Zr80         O93   2.407       .  S
Zr80         O86   2.404       .  S
Zr80         O87   2.397       .  S
Zr81         O83   2.437       .  S
Zr81        O105   2.435       .  S
Zr81        O107   2.412       .  S
Zr81         O85   2.387       .  S
Zr81         O88   2.379       .  S
Zr82        O108   2.434       .  S
Zr82        O109   2.436       .  S
Zr82         O84   2.436       .  S
Zr82         O85   2.389       .  S
Zr82         O86   2.374       .  S
O83         H120   0.990       .  S
O84         H115   0.991       .  S
O84         H129   0.990       .  S
O86         H112   0.965       .  S
O87         Zr97   2.372       .  S
O88         Zr97   2.371       .  S
O88         H113   0.966       .  S
C89        C4521   1.483       .  S
C90        C4549   1.468       .  S
C91        C4786   1.498       .  S
O92         H128   0.990       .  S
O93          C95   1.281       .  A
O94          C95   1.286       .  A
C95        C4577   1.461       .  S
O96         Zr97   2.439       .  S
O96         H125   0.990       .  S
Zr97        O100   2.438       .  S
Zr97        O101   2.439       .  S
Zr97        O102   2.432       .  S
O98         C103   1.284       .  A
O99         H116   0.990       .  S
O99         H131   0.990       .  S
O100        H117   0.990       .  S
O101        H121   0.990       .  S
O101        H130   0.990       .  S
O102        C103   1.284       .  A
C103       C4605   1.491       .  S
O104        H123   0.989       .  S
O104        H127   0.990       .  S
O105        H119   0.990       .  S
O105        H126   0.990       .  S
O106        C110   1.289       .  A
O107        C110   1.282       .  A
O108        H118   0.990       .  S
O109        H122   0.990       .  S
C110       C4506   1.496       .  S
Zr133       O134   2.438       .  S
Zr133       O135   2.448       .  S
Zr133       O136   2.443       .  S
Zr133       O139   2.417       .  S
Zr133       O141   2.376       .  S
Zr133       O142   2.385       .  S
Zr133       O143   2.411       .  S
Zr133       O144   2.407       .  S
O134        H190   0.990       .  S
O134        H198   0.990       .  S
O135        C155   1.285       .  A
O136        C157   1.285       .  A
O137       Zr147   2.414       .  S
O137        C156   1.282       .  A
O138       Zr146   2.445       .  S
O138        C157   1.286       .  A
O139        C156   1.280       .  A
O140       Zr148   2.409       .  S
O140        C155   1.278       .  A
O141       Zr146   2.400       .  S
O141       Zr148   2.389       .  S
O142       Zr147   2.392       .  S
O142       Zr148   2.373       .  S
O142        H177   0.966       .  S
O143       Zr146   2.395       .  S
O143       Zr163   2.398       .  S
O143        H180   0.964       .  S
O144       Zr147   2.389       .  S
O144       Zr163   2.392       .  S
Zr145       O170   2.439       .  S
Zr145       O164   2.440       .  S
Zr145       O172   2.451       .  S
Zr145       O160   2.423       .  S
Zr145       O151   2.403       .  S
Zr145       O152   2.409       .  S
Zr145       O153   2.385       .  S
Zr145       O154   2.376       .  S
Zr146       O165   2.436       .  S
Zr146       O158   2.435       .  S
Zr146       O159   2.424       .  S
Zr146       O152   2.403       .  S
Zr146       O153   2.395       .  S
Zr147       O149   2.435       .  S
Zr147       O171   2.436       .  S
Zr147       O173   2.429       .  S
Zr147       O151   2.385       .  S
Zr147       O154   2.389       .  S
Zr148       O174   2.438       .  S
Zr148       O175   2.435       .  S
Zr148       O150   2.437       .  S
Zr148       O151   2.401       .  S
Zr148       O152   2.386       .  S
O149        H186   0.990       .  S
O150        H181   0.990       .  S
O150        H195   0.990       .  S
O152        H178   0.964       .  S
O153       Zr163   2.375       .  S
O154       Zr163   2.371       .  S
O154        H179   0.966       .  S
C155       C4381   1.482       .  S
C156       C4409   1.468       .  S
C157       C4465   1.500       .  S
O158        H194   0.990       .  S
O159        C161   1.284       .  A
O160        C161   1.283       .  A
C161       C4437   1.464       .  S
O162       Zr163   2.438       .  S
O162        H191   0.990       .  S
Zr163       O166   2.437       .  S
Zr163       O167   2.440       .  S
Zr163       O168   2.432       .  S
O164        C169   1.285       .  A
O165        H182   0.990       .  S
O165        H197   0.990       .  S
O166        H183   0.990       .  S
O167        H187   0.990       .  S
O167        H196   0.990       .  S
O168        C169   1.284       .  A
C169       C4758   1.503       .  S
O170        H189   0.990       .  S
O170        H193   0.990       .  S
O171        H185   0.990       .  S
O171        H192   0.990       .  S
O172        C176   1.287       .  A
O173        C176   1.284       .  A
O174        H184   0.990       .  S
O175        H188   0.990       .  S
C176       C4353   1.489       .  S
Zr199       O200   2.443       .  S
Zr199       O201   2.447       .  S
Zr199       O202   2.438       .  S
Zr199       O205   2.421       .  S
Zr199       O207   2.378       .  S
Zr199       O208   2.384       .  S
Zr199       O209   2.408       .  S
Zr199       O210   2.406       .  S
O200        H256   0.990       .  S
O200        H264   0.991       .  S
O201        C221   1.286       .  A
O202        C223   1.283       .  A
O203       Zr213   2.399       .  S
O203        C222   1.278       .  A
O204       Zr212   2.439       .  S
O204        C223   1.286       .  A
O205        C222   1.282       .  A
O206       Zr214   2.407       .  S
O206        C221   1.280       .  A
O207       Zr212   2.390       .  S
O207       Zr214   2.386       .  S
O208       Zr213   2.387       .  S
O208       Zr214   2.376       .  S
O208        H243   0.967       .  S
O209       Zr212   2.392       .  S
O209       Zr229   2.399       .  S
O209        H246   0.964       .  S
O210       Zr213   2.391       .  S
O210       Zr229   2.397       .  S
Zr211       O236   2.441       .  S
Zr211       O230   2.423   1_554  S
Zr211       O238   2.452       .  S
Zr211       O226   2.429       .  S
Zr211       O217   2.399       .  S
Zr211       O218   2.410       .  S
Zr211       O219   2.387       .  S
Zr211       O220   2.377       .  S
Zr212       O231   2.435       .  S
Zr212       O224   2.435       .  S
Zr212       O225   2.413       .  S
Zr212       O218   2.403       .  S
Zr212       O219   2.393       .  S
Zr213       O215   2.436       .  S
Zr213       O237   2.437       .  S
Zr213       O239   2.416       .  S
Zr213       O217   2.384       .  S
Zr213       O220   2.380       .  S
Zr214       O240   2.437       .  S
Zr214       O241   2.435       .  S
Zr214       O216   2.436       .  S
Zr214       O217   2.394       .  S
Zr214       O218   2.387       .  S
O215        H252   0.990       .  S
O216        H247   0.990       .  S
O216        H261   0.990       .  S
O218        H244   0.967       .  S
O219       Zr229   2.370       .  S
O220       Zr229   2.366       .  S
O220        H245   0.966       .  S
C221       C4282   1.487       .  S
C222       C4338   1.468       .  S
C223       C4478   1.492       .  S
O224        H260   0.990       .  S
O225        C227   1.283       .  A
O226        C227   1.285       .  A
C227       C4310   1.473   1_554  S
O228       Zr229   2.438       .  S
O228        H257   0.991       .  S
Zr229       O232   2.437       .  S
Zr229       O233   2.439       .  S
Zr229       O234   2.436       .  S
O230        C235   1.282       .  A
O231        H248   0.990       .  S
O231        H263   0.990       .  S
O232        H249   0.990       .  S
O233        H253   0.990       .  S
O233        H262   0.990       .  S
O234        C235   1.286   1_554  A
C235       C4618   1.488       .  S
O236        H255   0.990       .  S
O236        H259   0.990       .  S
O237        H251   0.990       .  S
O237        H258   0.990       .  S
O238        C242   1.288       .  A
O239        C242   1.283       .  A
O240        H250   0.990       .  S
O241        H254   0.990       .  S
C242       C4241   1.492       .  S
Zr265       O266   2.438       .  S
Zr265       O267   2.413       .  S
Zr265       O268   2.451       .  S
Zr265       O271   2.420       .  S
Zr265       O273   2.375       .  S
Zr265       O274   2.388       .  S
Zr265       O275   2.395       .  S
Zr265       O276   2.401       .  S
O266        H322   0.990       .  S
O266        H330   0.990       .  S
O267        C287   1.282       .  A
O268        C289   1.287       .  A
O269       Zr279   2.426       .  S
O269        C288   1.284       .  A
O270       Zr278   2.412       .  S
O270        C289   1.282       .  A
O271        C288   1.283       .  A
O272       Zr280   2.426       .  S
O272        C287   1.282       .  A
O273       Zr278   2.386       .  S
O273       Zr280   2.374       .  S
O274       Zr279   2.390       .  S
O274       Zr280   2.365       .  S
O274        H309   0.967       .  S
O275       Zr278   2.390       .  S
O275       Zr295   2.393       .  S
O275        H312   0.968       .  S
O276       Zr279   2.398       .  S
O276       Zr295   2.389       .  S
Zr277       O302   2.442       .  S
Zr277       O296   2.451       .  S
Zr277       O304   2.437       .  S
Zr277       O292   2.431       .  S
Zr277       O283   2.404       .  S
Zr277       O284   2.412       .  S
Zr277       O285   2.377       .  S
Zr277       O286   2.382       .  S
Zr278       O297   2.437       .  S
Zr278       O290   2.434       .  S
Zr278       O291   2.406       .  S
Zr278       O284   2.394       .  S
Zr278       O285   2.387       .  S
Zr279       O281   2.435       .  S
Zr279       O303   2.438       .  S
Zr279       O305   2.441       .  S
Zr279       O283   2.389       .  S
Zr279       O286   2.390       .  S
Zr280       O306   2.435       .  S
Zr280       O307   2.435       .  S
Zr280       O282   2.437       .  S
Zr280       O283   2.395       .  S
Zr280       O284   2.395       .  S
O281        H318   0.990       .  S
O282        H313   0.990       .  S
O282        H327   0.990       .  S
O284        H310   0.967       .  S
O285       Zr295   2.380       .  S
O286       Zr295   2.390       .  S
O286        H311   0.967       .  S
C287       C4198   1.486       .  S
C288       C4170   1.474       .  S
C289       C4114   1.482       .  S
O290        H326   0.990       .  S
O291        C293   1.279       .  A
O292        C293   1.284       .  A
C293       C4730   1.474       .  S
O294       Zr295   2.440       .  S
O294        H323   0.990       .  S
Zr295       O298   2.438       .  S
Zr295       O299   2.437       .  S
Zr295       O300   2.403       .  S
O296        C301   1.287       .  A
O297        H314   0.990       .  S
O297        H329   0.990       .  S
O298        H315   0.990       .  S
O299        H319   0.990       .  S
O299        H328   0.990       .  S
O300        C301   1.279       .  A
C301       C4129   1.481       .  S
O302        H321   0.990       .  S
O302        H325   0.991       .  S
O303        H317   0.990       .  S
O303        H324   0.990       .  S
O304        C308   1.284       .  A
O305        C308   1.286       .  A
O306        H316   0.990       .  S
O307        H320   0.990       .  S
C308       C4213   1.493       .  S
Zr331       O332   2.441       .  S
Zr331       O333   2.431       .  S
Zr331       O334   2.462       .  S
Zr331       O337   2.414       .  S
Zr331       O339   2.369       .  S
Zr331       O340   2.391       .  S
Zr331       O341   2.399       .  S
Zr331       O342   2.407       .  S
O332        H388   0.991       .  S
O332        H396   0.990       .  S
O333        C353   1.283       .  A
O334        C355   1.287       .  A
O335       Zr345   2.406       .  S
O335        C354   1.281       .  A
O336       Zr344   2.412       .  S
O336        C355   1.281       .  A
O337        C354   1.283       .  A
O338       Zr346   2.424       .  S
O338        C353   1.282       .  A
O339       Zr344   2.390       .  S
O339       Zr346   2.378       .  S
O340       Zr345   2.395       .  S
O340       Zr346   2.363       .  S
O340        H375   0.966       .  S
O341       Zr344   2.392       .  S
O341       Zr361   2.395       .  S
O341        H378   0.967       .  S
O342       Zr345   2.398       .  S
O342       Zr361   2.385       .  S
Zr343       O368   2.440       .  S
Zr343       O362   2.453       .  S
Zr343       O370   2.438       .  S
Zr343       O358   2.439       .  S
Zr343       O349   2.410       .  S
Zr343       O350   2.405       .  S
Zr343       O351   2.380       .  S
Zr343       O352   2.375       .  S
Zr344       O363   2.435       .  S
Zr344       O356   2.435       .  S
Zr344       O357   2.402       .  S
Zr344       O350   2.396       .  S
Zr344       O351   2.392       .  S
Zr345       O347   2.435       .  S
Zr345       O369   2.436       .  S
Zr345       O371   2.441       .  S
Zr345       O349   2.390       .  S
Zr345       O352   2.382       .  S
Zr346       O372   2.437       .  S
Zr346       O373   2.433       .  S
Zr346       O348   2.439       .  S
Zr346       O349   2.404       .  S
Zr346       O350   2.386       .  S
O347        H384   0.990       .  S
O348        H379   0.990       .  S
O348        H393   0.990       .  S
O350        H376   0.963       .  S
O351       Zr361   2.383       .  S
O352       Zr361   2.380       .  S
O352        H377   0.966       .  S
C353       C4073   1.491       .  S
C354       C4030   1.469       .  S
C355       C3974   1.482       .  S
O356        H392   0.990       .  S
O357        C359   1.280       .  A
O358        C359   1.285       .  A
C359       C4058   1.468       .  S
O360       Zr361   2.438       .  S
O360        H389   0.990       .  S
Zr361       O364   2.437       .  S
Zr361       O365   2.440       .  S
Zr361       O366   2.406       .  S
O362        C367   1.287       .  A
O363        H380   0.990       .  S
O363        H395   0.990       .  S
O364        H381   0.990       .  S
O365        H385   0.990       .  S
O365        H394   0.990       .  S
O366        C367   1.280       .  A
C367       C4002   1.492       .  S
O368        H387   0.990       .  S
O368        H391   0.990       .  S
O369        H383   0.990       .  S
O369        H390   0.990       .  S
O370        C374   1.284       .  A
O371        C374   1.286       .  A
O372        H382   0.990       .  S
O373        H386   0.990       .  S
C374       C4226   1.497       .  S
Zr397       O398   2.440   1_556  S
Zr397       O399   2.417   1_556  S
Zr397       O400   2.451   1_556  S
Zr397       O403   2.422   1_556  S
Zr397       O405   2.378       .  S
Zr397       O406   2.390       .  S
Zr397       O407   2.395       .  S
Zr397       O408   2.398       .  S
O398        H454   0.990       .  S
O398        H462   0.990       .  S
O399        C419   1.282       .  A
O400        C421   1.286   1_554  A
O401       Zr411   2.408   1_554  S
O401        C420   1.281       .  A
O402       Zr410   2.426       .  S
O402        C421   1.284       .  A
O403        C420   1.283       .  A
O404       Zr412   2.416   1_554  S
O404        C419   1.281       .  A
O405       Zr410   2.386       .  S
O405       Zr412   2.379       .  S
O406       Zr411   2.390       .  S
O406       Zr412   2.370       .  S
O406        H441   0.966   1_556  S
O407       Zr410   2.394       .  S
O407       Zr427   2.395       .  S
O407        H444   0.967       .  S
O408       Zr411   2.395       .  S
O408       Zr427   2.385       .  S
Zr409       O434   2.442       .  S
Zr409       O428   2.444       .  S
Zr409       O436   2.433       .  S
Zr409       O424   2.431       .  S
Zr409       O415   2.403       .  S
Zr409       O416   2.407       .  S
Zr409       O417   2.381       .  S
Zr409       O418   2.378       .  S
Zr410       O429   2.434       .  S
Zr410       O422   2.435       .  S
Zr410       O423   2.412       .  S
Zr410       O416   2.394       .  S
Zr410       O417   2.393       .  S
Zr411       O413   2.435       .  S
Zr411       O435   2.440       .  S
Zr411       O437   2.426       .  S
Zr411       O415   2.388       .  S
Zr411       O418   2.388       .  S
Zr412       O438   2.436   1_556  S
Zr412       O439   2.436       .  S
Zr412       O414   2.436       .  S
Zr412       O415   2.394       .  S
Zr412       O416   2.385       .  S
O413        H450   0.990       .  S
O414        H445   0.990       .  S
O414        H459   0.990       .  S
O416        H442   0.967       .  S
O417       Zr427   2.380       .  S
O418       Zr427   2.383       .  S
O418        H443   0.966       .  S
C419       C4185   1.475       .  S
C420       C4422   1.467       .  S
C421       C3877   1.487       .  S
O422        H458   0.990       .  S
O423        C425   1.281       .  A
O424        C425   1.285       .  A
C425       C3905   1.487       .  S
O426       Zr427   2.439       .  S
O426        H455   0.991       .  S
Zr427       O430   2.436       .  S
Zr427       O431   2.440       .  S
Zr427       O432   2.406       .  S
O428        C433   1.286       .  A
O429        H446   0.990       .  S
O429        H461   0.990       .  S
O430        H447   0.990       .  S
O431        H451   0.990       .  S
O431        H460   0.990       .  S
O432        C433   1.279       .  A
C433       C4674   1.481       .  S
O434        H453   0.990       .  S
O434        H457   0.990       .  S
O435        H449   0.990       .  S
O435        H456   0.990   1_556  S
O436        C440   1.283       .  A
O437        C440   1.284       .  A
O438        H448   0.990   1_554  S
O439        H452   0.990       .  S
C440       C3933   1.490       .  S
Zr463       O464   2.440       .  S
Zr463       O465   2.425       .  S
Zr463       O466   2.462       .  S
Zr463       O469   2.440       .  S
Zr463       O471   2.381       .  S
Zr463       O472   2.391       .  S
Zr463       O473   2.402       .  S
Zr463       O474   2.401       .  S
O464        H520   0.991       .  S
O464        H528   0.990       .  S
O465        C485   1.281       .  A
O466        C487   1.288       .  A
O467       Zr477   2.396       .  S
O467        C486   1.279       .  A
O468       Zr476   2.411       .  S
O468        C487   1.281       .  A
O469        C486   1.287       .  A
O470       Zr478   2.428       .  S
O470        C485   1.284       .  A
O471       Zr476   2.390       .  S
O471       Zr478   2.374       .  S
O472       Zr477   2.394       .  S
O472       Zr478   2.368       .  S
O472        H507   0.967       .  S
O473       Zr476   2.393       .  S
O473       Zr493   2.394       .  S
O473        H510   0.967       .  S
O474       Zr477   2.396       .  S
O474       Zr493   2.387       .  S
Zr475       O500   2.443       .  S
Zr475       O494   2.460       .  S
Zr475       O502   2.433       .  S
Zr475       O490   2.427       .  S
Zr475       O481   2.410       .  S
Zr475       O482   2.416       .  S
Zr475       O483   2.382       .  S
Zr475       O484   2.376       .  S
Zr476       O495   2.434       .  S
Zr476       O488   2.433       .  S
Zr476       O489   2.413       .  S
Zr476       O482   2.395       .  S
Zr476       O483   2.390       .  S
Zr477       O479   2.436       .  S
Zr477       O501   2.437       .  S
Zr477       O503   2.425       .  S
Zr477       O481   2.386       .  S
Zr477       O484   2.387       .  S
Zr478       O504   2.436       .  S
Zr478       O505   2.435       .  S
Zr478       O480   2.436       .  S
Zr478       O481   2.402       .  S
Zr478       O482   2.388       .  S
O479        H516   0.990       .  S
O480        H511   0.991       .  S
O480        H525   0.989       .  S
O482        H508   0.965       .  S
O483       Zr493   2.382       .  S
O484       Zr493   2.385       .  S
O484        H509   0.965       .  S
C485       C4086   1.496       .  S
C486       C3849   1.470       .  S
C487       C3765   1.486       .  S
O488        H524   0.989       .  S
O489        C491   1.281       .  A
O490        C491   1.282       .  A
C491       C3821   1.467       .  S
O492       Zr493   2.438       .  S
O492        H521   0.990       .  S
Zr493       O496   2.437       .  S
Zr493       O497   2.441       .  S
Zr493       O498   2.405       .  S
O494        C499   1.287       .  A
O495        H512   0.990       .  S
O495        H527   0.990       .  S
O496        H513   0.990       .  S
O497        H517   0.990       .  S
O497        H526   0.990       .  S
O498        C499   1.279       .  A
C499       C3793   1.494       .  S
O500        H519   0.990       .  S
O500        H523   0.991       .  S
O501        H515   0.990       .  S
O501        H522   0.990       .  S
O502        C506   1.283       .  A
O503        C506   1.282       .  A
O504        H514   0.990       .  S
O505        H518   0.990       .  S
C506       C3946   1.485       .  S
Zr529       O530   2.439       .  S
Zr529       O531   2.445       .  S
Zr529       O532   2.433       .  S
Zr529       O535   2.419       .  S
Zr529       O537   2.371       .  S
Zr529       O538   2.379       .  S
Zr529       O539   2.404       .  S
Zr529       O540   2.408       .  S
O530        H586   0.990       .  S
O530        H594   0.990       .  S
O531        C551   1.286       .  A
O532        C553   1.283       .  A
O533       Zr543   2.419       .  S
O533        C552   1.282       .  A
O534       Zr542   2.443       .  S
O534        C553   1.286       .  A
O535        C552   1.283       .  A
O536       Zr544   2.416       .  S
O536        C551   1.281       .  A
O537       Zr542   2.388       .  S
O537       Zr544   2.386       .  S
O538       Zr543   2.387       .  S
O538       Zr544   2.367       .  S
O538        H573   0.966       .  S
O539       Zr542   2.385       .  S
O539       Zr559   2.399       .  S
O539        H576   0.965       .  S
O540       Zr543   2.386       .  S
O540       Zr559   2.403       .  S
Zr541       O566   2.439       .  S
Zr541       O560   2.426       .  S
Zr541       O568   2.470       .  S
Zr541       O556   2.443       .  S
Zr541       O547   2.402       .  S
Zr541       O548   2.411       .  S
Zr541       O549   2.388       .  S
Zr541       O550   2.382       .  S
Zr542       O561   2.438       .  S
Zr542       O554   2.434       .  S
Zr542       O555   2.398       .  S
Zr542       O548   2.408       .  S
Zr542       O549   2.394       .  S
Zr543       O545   2.434       .  S
Zr543       O567   2.437       .  S
Zr543       O569   2.400       .  S
Zr543       O547   2.393       .  S
Zr543       O550   2.390       .  S
Zr544       O570   2.436       .  S
Zr544       O571   2.435       .  S
Zr544       O546   2.436       .  S
Zr544       O547   2.394       .  S
Zr544       O548   2.388       .  S
O545        H582   0.990       .  S
O546        H577   0.990       .  S
O546        H591   0.990       .  S
O548        H574   0.967       .  S
O549       Zr559   2.372       .  S
O550       Zr559   2.372       .  S
O550        H575   0.967       .  S
C551       C3806   1.485       .  S
C552       C3694   1.480       .  S
C553       C3737   1.497       .  S
O554        H590   0.990       .  S
O555        C557   1.281       .  A
O556        C557   1.286       .  A
C557       C4045   1.483       .  S
O558       Zr559   2.438       .  S
O558        H587   0.990       .  S
Zr559       O562   2.438       .  S
Zr559       O563   2.438       .  S
Zr559       O564   2.443       .  S
O560        C565   1.282       .  A
O561        H578   0.990       .  S
O561        H593   0.990       .  S
O562        H579   0.990       .  S
O563        H583   0.990       .  S
O563        H592   0.990       .  S
O564        C565   1.286       .  A
C565       C3722   1.495       .  S
O566        H585   0.991       .  S
O566        H589   0.990       .  S
O567        H581   0.990       .  S
O567        H588   0.990       .  S
O568        C572   1.290       .  A
O569        C572   1.279       .  A
O570        H580   0.990       .  S
O571        H584   0.990       .  S
C572       C4366   1.492       .  S
Zr595       O596   2.440       .  S
Zr595       O597   2.443       .  S
Zr595       O598   2.441       .  S
Zr595       O601   2.431       .  S
Zr595       O603   2.378       .  S
Zr595       O604   2.386   1_545  S
Zr595       O605   2.413       .  S
Zr595       O606   2.398       .  S
O596        H652   0.990       .  S
O596        H660   0.990       .  S
O597        C617   1.284       .  A
O598        C619   1.284       .  A
O599       Zr609   2.409       .  S
O599        C618   1.281   1_565  A
O600       Zr608   2.434       .  S
O600        C619   1.285       .  A
O601        C618   1.283       .  A
O602       Zr610   2.410       .  S
O602        C617   1.280   1_565  A
O603       Zr608   2.393       .  S
O603       Zr610   2.385   1_545  S
O604       Zr609   2.394       .  S
O604       Zr610   2.380       .  S
O604        H639   0.966       .  S
O605       Zr608   2.394       .  S
O605       Zr625   2.398       .  S
O605        H642   0.964       .  S
O606       Zr609   2.385   1_545  S
O606       Zr625   2.386       .  S
Zr607       O632   2.440       .  S
Zr607       O626   2.427   1_554  S
Zr607       O634   2.439       .  S
Zr607       O622   2.425       .  S
Zr607       O613   2.399       .  S
Zr607       O614   2.407       .  S
Zr607       O615   2.385   1_565  S
Zr607       O616   2.377       .  S
Zr608       O627   2.437       .  S
Zr608       O620   2.435       .  S
Zr608       O621   2.414       .  S
Zr608       O614   2.404   1_545  S
Zr608       O615   2.394       .  S
Zr609       O611   2.437       .  S
Zr609       O633   2.437       .  S
Zr609       O635   2.419       .  S
Zr609       O613   2.386       .  S
Zr609       O616   2.388       .  S
Zr610       O636   2.435       .  S
Zr610       O637   2.436       .  S
Zr610       O612   2.438       .  S
Zr610       O613   2.396       .  S
Zr610       O614   2.383       .  S
O611        H648   0.990       .  S
O612        H643   0.990       .  S
O612        H657   0.989       .  S
O614        H640   0.966       .  S
O615       Zr625   2.374       .  S
O616       Zr625   2.374   1_565  S
O616        H641   0.966       .  S
C617       C3569   1.482       .  S
C618       C3597   1.471       .  S
C619       C3750   1.494       .  S
O620        H656   0.990       .  S
O621        C623   1.281       .  A
O622        C623   1.282   1_565  A
C623       C3638   1.456   1_554  S
O624       Zr625   2.438       .  S
O624        H653   0.990       .  S
Zr625       O628   2.438       .  S
Zr625       O629   2.438       .  S
Zr625       O630   2.425       .  S
O626        C631   1.283       .  A
O627        H644   0.990       .  S
O627        H659   0.990       .  S
O628        H645   0.990       .  S
O629        H649   0.990       .  S
O629        H658   0.990       .  S
O630        C631   1.283   1_544  A
C631       C3653   1.489       .  S
O632        H651   0.990       .  S
O632        H655   0.991   1_554  S
O633        H647   0.990       .  S
O633        H654   0.990       .  S
O634        C638   1.285       .  A
O635        C638   1.283       .  A
O636        H646   0.990       .  S
O637        H650   0.990       .  S
C638       C4254   1.492       .  S
Zr661       O662   2.441       .  S
Zr661       O663   2.456       .  S
Zr661       O664   2.451       .  S
Zr661       O667   2.422       .  S
Zr661       O669   2.374       .  S
Zr661       O670   2.387       .  S
Zr661       O671   2.412       .  S
Zr661       O672   2.410       .  S
O662        H718   0.990       .  S
O662        H726   0.990       .  S
O663        C683   1.287       .  A
O664        C685   1.286       .  A
O665       Zr675   2.410       .  S
O665        C684   1.281       .  A
O666       Zr674   2.437       .  S
O666        C685   1.285       .  A
O667        C684   1.282       .  A
O668       Zr676   2.402       .  S
O668        C683   1.277       .  A
O669       Zr674   2.392       .  S
O669       Zr676   2.387       .  S
O670       Zr675   2.394       .  S
O670       Zr676   2.376       .  S
O670        H705   0.965       .  S
O671       Zr674   2.394       .  S
O671       Zr691   2.397       .  S
O671        H708   0.963       .  S
O672       Zr675   2.391       .  S
O672       Zr691   2.395       .  S
Zr673       O698   2.444       .  S
Zr673       O692   2.435       .  S
Zr673       O700   2.463       .  S
Zr673       O688   2.432       .  S
Zr673       O679   2.399       .  S
Zr673       O680   2.407       .  S
Zr673       O681   2.387       .  S
Zr673       O682   2.378       .  S
Zr674       O693   2.437       .  S
Zr674       O686   2.434       .  S
Zr674       O687   2.415       .  S
Zr674       O680   2.399       .  S
Zr674       O681   2.392       .  S
Zr675       O677   2.436       .  S
Zr675       O699   2.436       .  S
Zr675       O701   2.421       .  S
Zr675       O679   2.386       .  S
Zr675       O682   2.386       .  S
Zr676       O702   2.435       .  S
Zr676       O703   2.435       .  S
Zr676       O678   2.437       .  S
Zr676       O679   2.393       .  S
Zr676       O680   2.383       .  S
O677        H714   0.990       .  S
O678        H709   0.990       .  S
O678        H723   0.990       .  S
O680        H706   0.966       .  S
O681       Zr691   2.371       .  S
O682       Zr691   2.372       .  S
O682        H707   0.966       .  S
C683       C3485   1.491       .  S
C684       C3862   1.472       .  S
C685       C3554   1.500       .  S
O686        H722   0.990       .  S
O687        C689   1.284       .  A
O688        C689   1.284       .  A
C689       C3513   1.486       .  S
O690       Zr691   2.439       .  S
O690        H719   0.990       .  S
Zr691       O694   2.435       .  S
Zr691       O695   2.440       .  S
Zr691       O696   2.438       .  S
O692        C697   1.286       .  A
O693        H710   0.991       .  S
O693        H725   0.990       .  S
O694        H711   0.990       .  S
O695        H715   0.990       .  S
O695        H724   0.990       .  S
O696        C697   1.285       .  A
C697       C3709   1.493       .  S
O698        H717   0.989       .  S
O698        H721   0.991       .  S
O699        H713   0.990       .  S
O699        H720   0.990       .  S
O700        C704   1.290       .  A
O701        C704   1.284       .  A
O702        H712   0.990       .  S
O703        H716   0.990       .  S
C704       C4646   1.495       .  S
Zr727       O728   2.441       .  S
Zr727       O729   2.447       .  S
Zr727       O730   2.454       .  S
Zr727       O733   2.430       .  S
Zr727       O735   2.374       .  S
Zr727       O736   2.385   1_545  S
Zr727       O737   2.409       .  S
Zr727       O738   2.409       .  S
O728        H784   0.990       .  S
O728        H792   0.991       .  S
O729        C749   1.286   1_545  A
O730        C751   1.286       .  A
O731       Zr741   2.406       .  S
O731        C750   1.280       .  A
O732       Zr740   2.432       .  S
O732        C751   1.284       .  A
O733        C750   1.284   1_545  A
O734       Zr742   2.403       .  S
O734        C749   1.278       .  A
O735       Zr740   2.388       .  S
O735       Zr742   2.386   1_545  S
O736       Zr741   2.391       .  S
O736       Zr742   2.375       .  S
O736        H771   0.967       .  S
O737       Zr740   2.391       .  S
O737       Zr757   2.406       .  S
O737        H774   0.964       .  S
O738       Zr741   2.391   1_545  S
O738       Zr757   2.393       .  S
Zr739       O764   2.439       .  S
Zr739       O758   2.432       .  S
Zr739       O766   2.455       .  S
Zr739       O754   2.441       .  S
Zr739       O745   2.398       .  S
Zr739       O746   2.409       .  S
Zr739       O747   2.387   1_565  S
Zr739       O748   2.379       .  S
Zr740       O759   2.437       .  S
Zr740       O752   2.434       .  S
Zr740       O753   2.401       .  S
Zr740       O746   2.405   1_545  S
Zr740       O747   2.394       .  S
Zr741       O743   2.435       .  S
Zr741       O765   2.436       .  S
Zr741       O767   2.414       .  S
Zr741       O745   2.383       .  S
Zr741       O748   2.387       .  S
Zr742       O768   2.435       .  S
Zr742       O769   2.435       .  S
Zr742       O744   2.436       .  S
Zr742       O745   2.388       .  S
Zr742       O746   2.385       .  S
O743        H780   0.990       .  S
O744        H775   0.990       .  S
O744        H789   0.990       .  S
O746        H772   0.967       .  S
O747       Zr757   2.374       .  S
O748       Zr757   2.371   1_565  S
O748        H773   0.966       .  S
C749       C3401   1.483   1_565  S
C750       C3457   1.475       .  S
C751       C3541   1.500       .  S
O752        H788   0.990       .  S
O753        C755   1.281       .  A
O754        C755   1.285   1_565  A
C755       C3442   1.480       .  S
O756       Zr757   2.438       .  S
O756        H785   0.990       .  S
Zr757       O760   2.436       .  S
Zr757       O761   2.441       .  S
Zr757       O762   2.428       .  S
O758        C763   1.284   1_565  A
O759        H776   0.990       .  S
O759        H791   0.990       .  S
O760        H777   0.990       .  S
O761        H781   0.990       .  S
O761        H790   0.990   1_545  S
O762        C763   1.283       .  A
C763       C3666   1.494       .  S
O764        H783   0.990       .  S
O764        H787   0.990       .  S
O765        H779   0.990       .  S
O765        H786   0.990       .  S
O766        C770   1.288       .  A
O767        C770   1.282       .  A
O768        H778   0.990       .  S
O769        H782   0.990       .  S
C770       C4493   1.488       .  S
Zr793       O794   2.439       .  S
Zr793       O795   2.428       .  S
Zr793       O796   2.452       .  S
Zr793       O799   2.420       .  S
Zr793       O801   2.377       .  S
Zr793       O802   2.389   1_545  S
Zr793       O803   2.402       .  S
Zr793       O804   2.405       .  S
O794        H850   0.990       .  S
O794        H858   0.990       .  S
O795        C815   1.284       .  A
O796        C817   1.286       .  A
O797       Zr807   2.417       .  S
O797        C816   1.283   1_565  A
O798       Zr806   2.418       .  S
O798        C817   1.283       .  A
O799        C816   1.283       .  A
O800       Zr808   2.433       .  S
O800        C815   1.284   1_565  A
O801       Zr806   2.391       .  S
O801       Zr808   2.375   1_545  S
O802       Zr807   2.388       .  S
O802       Zr808   2.370       .  S
O802        H837   0.965       .  S
O803       Zr806   2.394       .  S
O803       Zr823   2.394       .  S
O803        H840   0.967       .  S
O804       Zr807   2.396   1_545  S
O804       Zr823   2.390       .  S
Zr805       O830   2.443       .  S
Zr805       O824   2.456       .  S
Zr805       O832   2.429       .  S
Zr805       O820   2.438   1_565  S
Zr805       O811   2.410       .  S
Zr805       O812   2.410   1_565  S
Zr805       O813   2.377   1_565  S
Zr805       O814   2.383       .  S
Zr806       O825   2.435       .  S
Zr806       O818   2.435       .  S
Zr806       O819   2.416       .  S
Zr806       O812   2.392       .  S
Zr806       O813   2.392       .  S
Zr807       O809   2.435       .  S
Zr807       O831   2.439       .  S
Zr807       O833   2.438       .  S
Zr807       O811   2.387       .  S
Zr807       O814   2.390       .  S
Zr808       O834   2.434       .  S
Zr808       O835   2.436       .  S
Zr808       O810   2.437   1_565  S
Zr808       O811   2.402       .  S
Zr808       O812   2.389   1_565  S
O809        H846   0.990       .  S
O810        H841   0.990   1_545  S
O810        H855   0.990       .  S
O812        H838   0.967       .  S
O813       Zr823   2.380       .  S
O814       Zr823   2.386   1_565  S
O814        H839   0.967       .  S
C815       C3358   1.493       .  S
C816       C3610   1.472       .  S
C817       C3302   1.482       .  S
O818        H854   0.990       .  S
O819        C821   1.282       .  A
O820        C821   1.286       .  A
C821       C3330   1.486       .  S
O822       Zr823   2.439       .  S
O822        H851   0.990       .  S
Zr823       O826   2.438       .  S
Zr823       O827   2.438       .  S
Zr823       O828   2.408       .  S
O824        C829   1.288   1_565  A
O825        H842   0.990       .  S
O825        H857   0.990       .  S
O826        H843   0.990       .  S
O827        H847   0.990       .  S
O827        H856   0.990       .  S
O828        C829   1.279       .  A
C829       C3414   1.489       .  S
O830        H849   0.990       .  S
O830        H853   0.991       .  S
O831        H845   0.990       .  S
O831        H852   0.990       .  S
O832        C836   1.282       .  A
O833        C836   1.285       .  A
O834        H844   0.989       .  S
O835        H848   0.990       .  S
C836       C3373   1.487       .  S
Zr859       O860   2.440       .  S
Zr859       O861   2.430       .  S
Zr859       O862   2.459       .  S
Zr859       O865   2.419       .  S
Zr859       O867   2.371       .  S
Zr859       O868   2.393       .  S
Zr859       O869   2.402       .  S
Zr859       O870   2.402       .  S
O860        H916   0.990       .  S
O860        H924   0.990       .  S
O861        C881   1.284       .  A
O862        C883   1.286       .  A
O863       Zr873   2.412       .  S
O863        C882   1.282       .  A
O864       Zr872   2.400       .  S
O864        C883   1.280       .  A
O865        C882   1.282       .  A
O866       Zr874   2.432       .  S
O866        C881   1.283       .  A
O867       Zr872   2.389       .  S
O867       Zr874   2.379       .  S
O868       Zr873   2.393       .  S
O868       Zr874   2.376       .  S
O868        H903   0.966       .  S
O869       Zr872   2.391       .  S
O869       Zr889   2.402       .  S
O869        H906   0.965       .  S
O870       Zr873   2.395       .  S
O870       Zr889   2.382       .  S
Zr871       O896   2.441       .  S
Zr871       O890   2.448       .  S
Zr871       O898   2.420       .  S
Zr871       O886   2.419       .  S
Zr871       O877   2.407       .  S
Zr871       O878   2.404       .  S
Zr871       O879   2.375       .  S
Zr871       O880   2.374       .  S
Zr872       O891   2.437       .  S
Zr872       O884   2.435       .  S
Zr872       O885   2.402       .  S
Zr872       O878   2.386       .  S
Zr872       O879   2.387       .  S
Zr873       O875   2.436       .  S
Zr873       O897   2.437       .  S
Zr873       O899   2.440       .  S
Zr873       O877   2.384       .  S
Zr873       O880   2.388       .  S
Zr874       O900   2.436       .  S
Zr874       O901   2.437       .  S
Zr874       O876   2.437       .  S
Zr874       O877   2.402       .  S
Zr874       O878   2.392       .  S
O875        H912   0.990       .  S
O876        H907   0.990       .  S
O876        H921   0.990       .  S
O878        H904   0.966       .  S
O879       Zr889   2.376       .  S
O880       Zr889   2.382       .  S
O880        H905   0.967       .  S
C881       C3274   1.498       .  S
C882       C4562   1.463       .  S
C883       C3205   1.488       .  S
O884        H920   0.990       .  S
O885        C887   1.279       .  A
O886        C887   1.283       .  A
C887       C3246   1.475       .  S
O888       Zr889   2.439       .  S
O888        H917   0.990       .  S
Zr889       O892   2.438       .  S
Zr889       O893   2.439       .  S
Zr889       O894   2.416       .  S
O890        C895   1.286       .  A
O891        H908   0.990       .  S
O891        H923   0.990       .  S
O892        H909   0.990       .  S
O893        H913   0.990       .  S
O893        H922   0.990       .  S
O894        C895   1.282       .  A
C895       C4269   1.490       .  S
O896        H915   0.990       .  S
O896        H919   0.990       .  S
O897        H911   0.990       .  S
O897        H918   0.990       .  S
O898        C902   1.281       .  A
O899        C902   1.286       .  A
O900        H910   0.990       .  S
O901        H914   0.990       .  S
C902       C3386   1.491       .  S
Zr925       O926   2.440   1_556  S
Zr925       O927   2.432   1_556  S
Zr925       O928   2.463       .  S
Zr925       O931   2.419   1_556  S
Zr925       O933   2.374       .  S
Zr925       O934   2.392   1_545  S
Zr925       O935   2.398       .  S
Zr925       O936   2.405       .  S
O926        H982   0.990       .  S
O926        H990   0.990       .  S
O927        C947   1.285       .  A
O928        C949   1.289       .  A
O929       Zr939   2.428   1_554  S
O929        C948   1.285   1_565  A
O930       Zr938   2.418       .  S
O930        C949   1.282       .  A
O931        C948   1.283       .  A
O932       Zr940   2.426   1_554  S
O932        C947   1.282   1_565  A
O933       Zr938   2.390       .  S
O933       Zr940   2.382   1_545  S
O934       Zr939   2.396       .  S
O934       Zr940   2.369       .  S
O934        H969   0.965   1_556  S
O935       Zr938   2.389       .  S
O935       Zr955   2.394       .  S
O935        H972   0.968       .  S
O936       Zr939   2.394   1_545  S
O936       Zr955   2.387       .  S
Zr937       O962   2.440       .  S
Zr937       O956   2.460       .  S
Zr937       O964   2.448       .  S
Zr937       O952   2.449       .  S
Zr937       O943   2.409       .  S
Zr937       O944   2.414   1_565  S
Zr937       O945   2.382   1_565  S
Zr937       O946   2.384       .  S
Zr938       O957   2.435       .  S
Zr938       O950   2.435       .  S
Zr938       O951   2.405       .  S
Zr938       O944   2.395       .  S
Zr938       O945   2.393       .  S
Zr939       O941   2.435       .  S
Zr939       O963   2.438   1_556  S
Zr939       O965   2.442       .  S
Zr939       O943   2.393       .  S
Zr939       O946   2.395       .  S
Zr940       O966   2.435   1_556  S
Zr940       O967   2.436       .  S
Zr940       O942   2.437       .  S
Zr940       O943   2.400       .  S
Zr940       O944   2.383   1_565  S
O941        H978   0.990       .  S
O942        H973   0.990       .  S
O942        H987   0.990   1_565  S
O944        H970   0.966   1_545  S
O945       Zr955   2.381       .  S
O946       Zr955   2.386   1_565  S
O946        H971   0.966       .  S
C947       C3345   1.491       .  S
C948       C3162   1.476       .  S
C949       C3093   1.487       .  S
O950        H986   0.990       .  S
O951        C953   1.281       .  A
O952        C953   1.287   1_565  A
C953       C3429   1.482       .  S
O954       Zr955   2.438       .  S
O954        H983   0.990       .  S
Zr955       O958   2.437       .  S
Zr955       O959   2.439       .  S
Zr955       O960   2.407       .  S
O956        C961   1.288   1_565  A
O957        H974   0.990       .  S
O957        H989   0.990       .  S
O958        H975   0.990       .  S
O959        H979   0.990       .  S
O959        H988   0.990       .  S
O960        C961   1.279       .  A
C961       C3121   1.488       .  S
O962        H981   0.990       .  S
O962        H985   0.990       .  S
O963        H977   0.990       .  S
O963        H984   0.990       .  S
O964        C968   1.286       .  A
O965        C968   1.285       .  A
O966        H976   0.990   1_554  S
O967        H980   0.990       .  S
C968       C3190   1.494       .  S
Zr991       O992   2.440       .  S
Zr991       O993   2.432       .  S
Zr991       O994   2.440       .  S
Zr991       O997   2.430       .  S
Zr991       O999   2.379       .  S
Zr991      O1000   2.387       .  S
Zr991      O1001   2.405       .  S
Zr991      O1002   2.399       .  S
O992       H1048   0.990       .  S
O992       H1056   0.990       .  S
O993       C1013   1.284       .  A
O994       C1015   1.284       .  A
O995      Zr1005   2.408       .  S
O995       C1014   1.282       .  A
O996      Zr1004   2.407       .  S
O996       C1015   1.280       .  A
O997       C1014   1.284       .  A
O998      Zr1006   2.437       .  S
O998       C1013   1.285       .  A
O999      Zr1004   2.391       .  S
O999      Zr1006   2.372       .  S
O1000     Zr1005   2.395       .  S
O1000     Zr1006   2.370       .  S
O1000      H1035   0.966       .  S
O1001     Zr1004   2.393       .  S
O1001     Zr1021   2.396       .  S
O1001      H1038   0.968       .  S
O1002     Zr1005   2.394       .  S
O1002     Zr1021   2.389       .  S
Zr1003     O1028   2.442       .  S
Zr1003     O1022   2.457       .  S
Zr1003     O1030   2.442       .  S
Zr1003     O1018   2.441       .  S
Zr1003     O1009   2.407       .  S
Zr1003     O1010   2.415       .  S
Zr1003     O1011   2.382       .  S
Zr1003     O1012   2.380       .  S
Zr1004     O1023   2.434       .  S
Zr1004     O1016   2.434       .  S
Zr1004     O1017   2.412       .  S
Zr1004     O1010   2.395       .  S
Zr1004     O1011   2.388       .  S
Zr1005     O1007   2.436       .  S
Zr1005     O1029   2.438       .  S
Zr1005     O1031   2.436       .  S
Zr1005     O1009   2.386       .  S
Zr1005     O1012   2.387       .  S
Zr1006     O1032   2.434       .  S
Zr1006     O1033   2.435       .  S
Zr1006     O1008   2.436       .  S
Zr1006     O1009   2.399       .  S
Zr1006     O1010   2.388       .  S
O1007      H1044   0.990       .  S
O1008      H1039   0.990       .  S
O1008      H1053   0.990       .  S
O1010      H1036   0.963       .  S
O1011     Zr1021   2.381       .  S
O1012     Zr1021   2.387       .  S
O1012      H1037   0.966       .  S
C1013      C3261   1.492       .  S
C1014      C3065   1.481       .  S
C1015      C3009   1.473       .  S
O1016      H1052   0.990       .  S
O1017      C1019   1.281       .  A
O1018      C1019   1.285       .  A
C1019      C4297   1.472       .  S
O1020     Zr1021   2.439       .  S
O1020      H1049   0.990       .  S
Zr1021     O1024   2.438       .  S
Zr1021     O1025   2.439       .  S
Zr1021     O1026   2.404       .  S
O1022      C1027   1.287       .  A
O1023      H1040   0.990       .  S
O1023      H1055   0.990       .  S
O1024      H1041   0.990       .  S
O1025      H1045   0.990       .  S
O1025      H1054   0.990       .  S
O1026      C1027   1.279       .  A
C1027      C3037   1.490       .  S
O1028      H1047   0.990       .  S
O1028      H1051   0.991       .  S
O1029      H1043   0.990       .  S
O1029      H1050   0.990       .  S
O1030      C1034   1.286       .  A
O1031      C1034   1.284       .  A
O1032      H1042   0.990       .  S
O1033      H1046   0.990       .  S
C1034      C3177   1.503       .  S
Zr1057     O1058   2.441       .  S
Zr1057     O1059   2.454       .  S
Zr1057     O1060   2.440       .  S
Zr1057     O1063   2.419       .  S
Zr1057     O1065   2.374       .  S
Zr1057     O1066   2.384       .  S
Zr1057     O1067   2.410       .  S
Zr1057     O1068   2.407       .  S
O1058      H1114   0.990       .  S
O1058      H1122   0.990       .  S
O1059      C1079   1.287       .  A
O1060      C1081   1.284       .  A
O1061     Zr1071   2.403       .  S
O1061      C1080   1.279       .  A
O1062     Zr1070   2.442       .  S
O1062      C1081   1.286       .  A
O1063      C1080   1.282       .  A
O1064     Zr1072   2.411       .  S
O1064      C1079   1.279       .  A
O1065     Zr1070   2.393       .  S
O1065     Zr1072   2.389       .  S
O1066     Zr1071   2.393       .  S
O1066     Zr1072   2.371       .  S
O1066      H1101   0.967       .  S
O1067     Zr1070   2.392       .  S
O1067     Zr1087   2.398       .  S
O1067      H1104   0.964       .  S
O1068     Zr1071   2.386       .  S
O1068     Zr1087   2.395       .  S
Zr1069     O1094   2.440       .  S
Zr1069     O1088   2.430       .  S
Zr1069     O1096   2.457       .  S
Zr1069     O1084   2.438       .  S
Zr1069     O1075   2.402       .  S
Zr1069     O1076   2.412       .  S
Zr1069     O1077   2.390       .  S
Zr1069     O1078   2.377       .  S
Zr1070     O1089   2.437       .  S
Zr1070     O1082   2.434       .  S
Zr1070     O1083   2.405       .  S
Zr1070     O1076   2.408       .  S
Zr1070     O1077   2.398       .  S
Zr1071     O1073   2.434       .  S
Zr1071     O1095   2.437       .  S
Zr1071     O1097   2.415       .  S
Zr1071     O1075   2.385       .  S
Zr1071     O1078   2.384       .  S
Zr1072     O1098   2.437       .  S
Zr1072     O1099   2.435       .  S
Zr1072     O1074   2.438       .  S
Zr1072     O1075   2.394       .  S
Zr1072     O1076   2.383       .  S
O1073      H1110   0.990       .  S
O1074      H1105   0.990       .  S
O1074      H1119   0.990       .  S
O1076      H1102   0.964       .  S
O1077     Zr1087   2.375       .  S
O1078     Zr1087   2.371       .  S
O1078      H1103   0.967       .  S
C1079      C3050   1.494       .  S
C1080      C2925   1.469       .  S
C1081      C2981   1.493       .  S
O1082      H1118   0.990       .  S
O1083      C1085   1.281       .  A
O1084      C1085   1.284       .  A
C1085      C3233   1.462       .  S
O1086     Zr1087   2.439       .  S
O1086      H1115   0.991       .  S
Zr1087     O1090   2.437       .  S
Zr1087     O1091   2.441       .  S
Zr1087     O1092   2.427       .  S
O1088      C1093   1.284       .  A
O1089      H1106   0.990       .  S
O1089      H1121   0.990       .  S
O1090      H1107   0.990       .  S
O1091      H1111   0.990       .  S
O1091      H1120   0.990       .  S
O1092      C1093   1.283       .  A
C1093      C2953   1.489       .  S
O1094      H1113   0.990       .  S
O1094      H1117   0.990       .  S
O1095      H1109   0.990       .  S
O1095      H1116   0.990       .  S
O1096      C1100   1.289       .  A
O1097      C1100   1.282       .  A
O1098      H1108   0.990       .  S
O1099      H1112   0.990       .  S
C1100      C2897   1.492       .  S
Zr1123     O1124   2.440       .  S
Zr1123     O1125   2.453       .  S
Zr1123     O1126   2.451       .  S
Zr1123     O1129   2.439       .  S
Zr1123     O1131   2.377       .  S
Zr1123     O1132   2.388       .  S
Zr1123     O1133   2.416       .  S
Zr1123     O1134   2.407       .  S
O1124      H1180   0.990       .  S
O1124      H1188   0.990       .  S
O1125      C1145   1.286       .  A
O1126      C1147   1.286       .  A
O1127     Zr1137   2.409       .  S
O1127      C1146   1.280       .  A
O1128     Zr1136   2.437       .  S
O1128      C1147   1.285       .  A
O1129      C1146   1.285       .  A
O1130     Zr1138   2.412       .  S
O1130      C1145   1.279       .  A
O1131     Zr1136   2.394       .  S
O1131     Zr1138   2.386       .  S
O1132     Zr1137   2.393       .  S
O1132     Zr1138   2.381       .  S
O1132      H1167   0.966       .  S
O1133     Zr1136   2.392       .  S
O1133     Zr1153   2.401       .  S
O1133      H1170   0.964       .  S
O1134     Zr1137   2.389       .  S
O1134     Zr1153   2.392       .  S
Zr1135     O1160   2.443       .  S
Zr1135     O1154   2.435   1_554  S
Zr1135     O1162   2.454       .  S
Zr1135     O1150   2.435       .  S
Zr1135     O1141   2.406       .  S
Zr1135     O1142   2.411       .  S
Zr1135     O1143   2.387       .  S
Zr1135     O1144   2.383       .  S
Zr1136     O1155   2.436       .  S
Zr1136     O1148   2.435       .  S
Zr1136     O1149   2.409       .  S
Zr1136     O1142   2.402       .  S
Zr1136     O1143   2.389       .  S
Zr1137     O1139   2.437       .  S
Zr1137     O1161   2.435       .  S
Zr1137     O1163   2.421       .  S
Zr1137     O1141   2.383       .  S
Zr1137     O1144   2.393       .  S
Zr1138     O1164   2.435       .  S
Zr1138     O1165   2.435       .  S
Zr1138     O1140   2.438       .  S
Zr1138     O1141   2.404       .  S
Zr1138     O1142   2.387       .  S
O1139      H1176   0.990       .  S
O1140      H1171   0.990       .  S
O1140      H1185   0.990       .  S
O1142      H1168   0.966       .  S
O1143     Zr1153   2.369       .  S
O1144     Zr1153   2.372       .  S
O1144      H1169   0.965       .  S
C1145      C2813   1.489       .  S
C1146      C4157   1.477       .  S
C1147      C2994   1.498       .  S
O1148      H1184   0.990       .  S
O1149      C1151   1.282       .  A
O1150      C1151   1.285       .  A
C1151      C2841   1.480   1_554  S
O1152     Zr1153   2.439       .  S
O1152      H1181   0.990       .  S
Zr1153     O1156   2.438       .  S
Zr1153     O1157   2.441       .  S
Zr1153     O1158   2.438       .  S
O1154      C1159   1.286       .  A
O1155      H1172   0.990       .  S
O1155      H1187   0.990       .  S
O1156      H1173   0.990       .  S
O1157      H1177   0.990       .  S
O1157      H1186   0.990       .  S
O1158      C1159   1.284   1_554  A
C1159      C2882   1.502       .  S
O1160      H1179   0.990       .  S
O1160      H1183   0.990       .  S
O1161      H1175   0.990       .  S
O1161      H1182   0.990       .  S
O1162      C1166   1.288       .  A
O1163      C1166   1.282       .  A
O1164      H1174   0.990       .  S
O1165      H1178   0.990       .  S
C1166      C2785   1.487       .  S
Zr1189     O1190   2.440       .  S
Zr1189     O1191   2.449       .  S
Zr1189     O1192   2.440       .  S
Zr1189     O1195   2.423       .  S
Zr1189     O1197   2.375       .  S
Zr1189     O1198   2.382       .  S
Zr1189     O1199   2.407       .  S
Zr1189     O1200   2.409       .  S
O1190      H1246   0.990       .  S
O1190      H1254   0.990       .  S
O1191      C1211   1.286       .  A
O1192      C1213   1.285       .  A
O1193     Zr1203   2.411       .  S
O1193      C1212   1.281       .  A
O1194     Zr1202   2.427       .  S
O1194      C1213   1.284       .  A
O1195      C1212   1.283       .  A
O1196     Zr1204   2.411       .  S
O1196      C1211   1.280       .  A
O1197     Zr1202   2.390       .  S
O1197     Zr1204   2.381       .  S
O1198     Zr1203   2.385       .  S
O1198     Zr1204   2.371       .  S
O1198      H1233   0.967       .  S
O1199     Zr1202   2.389       .  S
O1199     Zr1219   2.399       .  S
O1199      H1236   0.965       .  S
O1200     Zr1203   2.387       .  S
O1200     Zr1219   2.398       .  S
Zr1201     O1226   2.445       .  S
Zr1201     O1220   2.435       .  S
Zr1201     O1228   2.454       .  S
Zr1201     O1216   2.442       .  S
Zr1201     O1207   2.404       .  S
Zr1201     O1208   2.410       .  S
Zr1201     O1209   2.387       .  S
Zr1201     O1210   2.382       .  S
Zr1202     O1221   2.435       .  S
Zr1202     O1214   2.434   1_655  S
Zr1202     O1215   2.412   1_655  S
Zr1202     O1208   2.399       .  S
Zr1202     O1209   2.391       .  S
Zr1203     O1205   2.435       .  S
Zr1203     O1227   2.436       .  S
Zr1203     O1229   2.416       .  S
Zr1203     O1207   2.385       .  S
Zr1203     O1210   2.383       .  S
Zr1204     O1230   2.435       .  S
Zr1204     O1231   2.435   1_655  S
Zr1204     O1206   2.437   1_655  S
Zr1204     O1207   2.395       .  S
Zr1204     O1208   2.385       .  S
O1205      H1242   0.990       .  S
O1206      H1237   0.990       .  S
O1206      H1251   0.990       .  S
O1208      H1234   0.966   1_655  S
O1209     Zr1219   2.374       .  S
O1210     Zr1219   2.372       .  S
O1210      H1235   0.967       .  S
C1211      C4142   1.495       .  S
C1212      C2729   1.475       .  S
C1213      C2770   1.490       .  S
O1214      H1250   0.990       .  S
O1215      C1217   1.282       .  A
O1216      C1217   1.286   1_655  A
C1217      C3918   1.467       .  S
O1218     Zr1219   2.438       .  S
O1218      H1247   0.990       .  S
Zr1219     O1222   2.437       .  S
Zr1219     O1223   2.441       .  S
Zr1219     O1224   2.433       .  S
O1220      C1225   1.286       .  A
O1221      H1238   0.990       .  S
O1221      H1253   0.990   1_655  S
O1222      H1239   0.990       .  S
O1223      H1243   0.990       .  S
O1223      H1252   0.990       .  S
O1224      C1225   1.285       .  A
C1225      C2869   1.493       .  S
O1226      H1245   0.990       .  S
O1226      H1249   0.990   1_655  S
O1227      H1241   0.990       .  S
O1227      H1248   0.990       .  S
O1228      C1232   1.288       .  A
O1229      C1232   1.283       .  A
O1230      H1240   0.990       .  S
O1231      H1244   0.990       .  S
C1232      C2701   1.495       .  S
Zr1255     O1256   2.441       .  S
Zr1255     O1257   2.443       .  S
Zr1255     O1258   2.431       .  S
Zr1255     O1261   2.427       .  S
Zr1255     O1263   2.377       .  S
Zr1255     O1264   2.381       .  S
Zr1255     O1265   2.409       .  S
Zr1255     O1266   2.401       .  S
O1256      H1312   0.990       .  S
O1256      H1320   0.990       .  S
O1257      C1277   1.286       .  A
O1258      C1279   1.283       .  A
O1259     Zr1269   2.411       .  S
O1259      C1278   1.281       .  A
O1260     Zr1268   2.443       .  S
O1260      C1279   1.287       .  A
O1261      C1278   1.283       .  A
O1262     Zr1270   2.408   1_455  S
O1262      C1277   1.280   1_455  A
O1263     Zr1268   2.391       .  S
O1263     Zr1270   2.380       .  S
O1264     Zr1269   2.385       .  S
O1264     Zr1270   2.376       .  S
O1264      H1299   0.967       .  S
O1265     Zr1268   2.390       .  S
O1265     Zr1285   2.398       .  S
O1265      H1302   0.965       .  S
O1266     Zr1269   2.387       .  S
O1266     Zr1285   2.396       .  S
Zr1267     O1292   2.444       .  S
Zr1267     O1286   2.436       .  S
Zr1267     O1294   2.468       .  S
Zr1267     O1282   2.443       .  S
Zr1267     O1273   2.406       .  S
Zr1267     O1274   2.414       .  S
Zr1267     O1275   2.394       .  S
Zr1267     O1276   2.377       .  S
Zr1268     O1287   2.436       .  S
Zr1268     O1280   2.435   1_655  S
Zr1268     O1281   2.410   1_655  S
Zr1268     O1274   2.405       .  S
Zr1268     O1275   2.395       .  S
Zr1269     O1271   2.435       .  S
Zr1269     O1293   2.437       .  S
Zr1269     O1295   2.412       .  S
Zr1269     O1273   2.386       .  S
Zr1269     O1276   2.385       .  S
Zr1270     O1296   2.433       .  S
Zr1270     O1297   2.437   1_655  S
Zr1270     O1272   2.439   1_655  S
Zr1270     O1273   2.402       .  S
Zr1270     O1274   2.376       .  S
O1271      H1308   0.990       .  S
O1272      H1303   0.990       .  S
O1272      H1317   0.990       .  S
O1274      H1300   0.965   1_655  S
O1275     Zr1285   2.372       .  S
O1276     Zr1285   2.371       .  S
O1276      H1301   0.965       .  S
C1277      C2658   1.483   1_655  S
C1278      C3078   1.476       .  S
C1279      C2757   1.500       .  S
O1280      H1316   0.990       .  S
O1281      C1283   1.281       .  A
O1282      C1283   1.286   1_655  A
C1283      C2673   1.458       .  S
O1284     Zr1285   2.438       .  S
O1284      H1313   0.990       .  S
Zr1285     O1288   2.438       .  S
Zr1285     O1289   2.439       .  S
Zr1285     O1290   2.426       .  S
O1286      C1291   1.285       .  A
O1287      H1304   0.990       .  S
O1287      H1319   0.990   1_655  S
O1288      H1305   0.990       .  S
O1289      H1309   0.990       .  S
O1289      H1318   0.990       .  S
O1290      C1291   1.284       .  A
C1291      C2966   1.495       .  S
O1292      H1311   0.990       .  S
O1292      H1315   0.990   1_655  S
O1293      H1307   0.990       .  S
O1293      H1314   0.990       .  S
O1294      C1298   1.291       .  A
O1295      C1298   1.281       .  A
O1296      H1306   0.989       .  S
O1297      H1310   0.990       .  S
C1298      C2617   1.498       .  S
Zr1321     O1322   2.440       .  S
Zr1321     O1323   2.433       .  S
Zr1321     O1324   2.448       .  S
Zr1321     O1327   2.434       .  S
Zr1321     O1329   2.378       .  S
Zr1321     O1330   2.390       .  S
Zr1321     O1331   2.406       .  S
Zr1321     O1332   2.399       .  S
O1322      H1378   0.991       .  S
O1322      H1386   0.990       .  S
O1323      C1343   1.283       .  A
O1324      C1345   1.284       .  A
O1325     Zr1335   2.410       .  S
O1325      C1344   1.282       .  A
O1326     Zr1334   2.414       .  S
O1326      C1345   1.281       .  A
O1327      C1344   1.284       .  A
O1328     Zr1336   2.430       .  S
O1328      C1343   1.283       .  A
O1329     Zr1334   2.394       .  S
O1329     Zr1336   2.379       .  S
O1330     Zr1335   2.395       .  S
O1330     Zr1336   2.375       .  S
O1330      H1365   0.966       .  S
O1331     Zr1334   2.393       .  S
O1331     Zr1351   2.400       .  S
O1331      H1368   0.967       .  S
O1332     Zr1335   2.392       .  S
O1332     Zr1351   2.385       .  S
Zr1333     O1358   2.440       .  S
Zr1333     O1352   2.457       .  S
Zr1333     O1360   2.445       .  S
Zr1333     O1348   2.435       .  S
Zr1333     O1339   2.407       .  S
Zr1333     O1340   2.415       .  S
Zr1333     O1341   2.380       .  S
Zr1333     O1342   2.379       .  S
Zr1334     O1353   2.436       .  S
Zr1334     O1346   2.436       .  S
Zr1334     O1347   2.412       .  S
Zr1334     O1340   2.394       .  S
Zr1334     O1341   2.392       .  S
Zr1335     O1337   2.436       .  S
Zr1335     O1359   2.435       .  S
Zr1335     O1361   2.436       .  S
Zr1335     O1339   2.388       .  S
Zr1335     O1342   2.387       .  S
Zr1336     O1362   2.435       .  S
Zr1336     O1363   2.436       .  S
Zr1336     O1338   2.436       .  S
Zr1336     O1339   2.401       .  S
Zr1336     O1340   2.393       .  S
O1337      H1374   0.990       .  S
O1338      H1369   0.990       .  S
O1338      H1383   0.990       .  S
O1340      H1366   0.967       .  S
O1341     Zr1351   2.378       .  S
O1342     Zr1351   2.385       .  S
O1342      H1367   0.967       .  S
C1343      C2561   1.495       .  S
C1344      C2742   1.477       .  S
C1345      C3218   1.480       .  S
O1346      H1382   0.990       .  S
O1347      C1349   1.280       .  A
O1348      C1349   1.284       .  A
C1349      C4450   1.468       .  S
O1350     Zr1351   2.439       .  S
O1350      H1379   0.990       .  S
Zr1351     O1354   2.438       .  S
Zr1351     O1355   2.439       .  S
Zr1351     O1356   2.417       .  S
O1352      C1357   1.288       .  A
O1353      H1370   0.990       .  S
O1353      H1385   0.990       .  S
O1354      H1371   0.990       .  S
O1355      H1375   0.990       .  S
O1355      H1384   0.990       .  S
O1356      C1357   1.282       .  A
C1357      C2826   1.491       .  S
O1358      H1377   0.990       .  S
O1358      H1381   0.990       .  S
O1359      H1373   0.990       .  S
O1359      H1380   0.990       .  S
O1360      C1364   1.286       .  A
O1361      C1364   1.285       .  A
O1362      H1372   0.990       .  S
O1363      H1376   0.990       .  S
C1364      C2589   1.500       .  S
Zr1387     O1388   2.440       .  S
Zr1387     O1389   2.425       .  S
Zr1387     O1390   2.454       .  S
Zr1387     O1393   2.425       .  S
Zr1387     O1395   2.377       .  S
Zr1387     O1396   2.390       .  S
Zr1387     O1397   2.401       .  S
Zr1387     O1398   2.400       .  S
O1388      H1444   0.990       .  S
O1388      H1452   0.990       .  S
O1389      C1409   1.282       .  A
O1390      C1411   1.286       .  A
O1391     Zr1401   2.408       .  S
O1391      C1410   1.282       .  A
O1392     Zr1400   2.418       .  S
O1392      C1411   1.282       .  A
O1393      C1410   1.283       .  A
O1394     Zr1402   2.425       .  S
O1394      C1409   1.283       .  A
O1395     Zr1400   2.387       .  S
O1395     Zr1402   2.376       .  S
O1396     Zr1401   2.392       .  S
O1396     Zr1402   2.369       .  S
O1396      H1431   0.966       .  S
O1397     Zr1400   2.386       .  S
O1397     Zr1417   2.392       .  S
O1397      H1434   0.967       .  S
O1398     Zr1401   2.393       .  S
O1398     Zr1417   2.388       .  S
Zr1399     O1424   2.441       .  S
Zr1399     O1418   2.470       .  S
Zr1399     O1426   2.455       .  S
Zr1399     O1414   2.446       .  S
Zr1399     O1405   2.412       .  S
Zr1399     O1406   2.422       .  S
Zr1399     O1407   2.384       .  S
Zr1399     O1408   2.381       .  S
Zr1400     O1419   2.435       .  S
Zr1400     O1412   2.434       .  S
Zr1400     O1413   2.399       .  S
Zr1400     O1406   2.401       .  S
Zr1400     O1407   2.392       .  S
Zr1401     O1403   2.435       .  S
Zr1401     O1425   2.438       .  S
Zr1401     O1427   2.428       .  S
Zr1401     O1405   2.387       .  S
Zr1401     O1408   2.388       .  S
Zr1402     O1428   2.436       .  S
Zr1402     O1429   2.435       .  S
Zr1402     O1404   2.437       .  S
Zr1402     O1405   2.401       .  S
Zr1402     O1406   2.386       .  S
O1403      H1440   0.990       .  S
O1404      H1435   0.990       .  S
O1404      H1449   0.990       .  S
O1406      H1432   0.966       .  S
O1407     Zr1417   2.378       .  S
O1408     Zr1417   2.388       .  S
O1408      H1433   0.966       .  S
C1409      C2533   1.492       .  S
C1410      C2518   1.473       .  S
C1411      C3289   1.481       .  S
O1412      H1448   0.990       .  S
O1413      C1415   1.279       .  A
O1414      C1415   1.286       .  A
C1415      C3526   1.464       .  S
O1416     Zr1417   2.440       .  S
O1416      H1445   0.990       .  S
Zr1417     O1420   2.437       .  S
Zr1417     O1421   2.437       .  S
Zr1417     O1422   2.406       .  S
O1418      C1423   1.290       .  A
O1419      H1436   0.990       .  S
O1419      H1451   0.990       .  S
O1420      H1437   0.990       .  S
O1421      H1441   0.990       .  S
O1421      H1450   0.990       .  S
O1422      C1423   1.279       .  A
C1423      C2477   1.498       .  S
O1424      H1443   0.990       .  S
O1424      H1447   0.990       .  S
O1425      H1439   0.990       .  S
O1425      H1446   0.990       .  S
O1426      C1430   1.288       .  A
O1427      C1430   1.283       .  A
O1428      H1438   0.990       .  S
O1429      H1442   0.990       .  S
C1430      C2602   1.502       .  S
Zr1453     O1454   2.441       .  S
Zr1453     O1455   2.438       .  S
Zr1453     O1456   2.452       .  S
Zr1453     O1459   2.430       .  S
Zr1453     O1461   2.376       .  S
Zr1453     O1462   2.387       .  S
Zr1453     O1463   2.404       .  S
Zr1453     O1464   2.404       .  S
O1454      H1510   0.990       .  S
O1454      H1518   0.990       .  S
O1455      C1475   1.284       .  A
O1456      C1477   1.285       .  A
O1457     Zr1467   2.405       .  S
O1457      C1476   1.281       .  A
O1458     Zr1466   2.411       .  S
O1458      C1477   1.280       .  A
O1459      C1476   1.284       .  A
O1460     Zr1468   2.422       .  S
O1460      C1475   1.283       .  A
O1461     Zr1466   2.392       .  S
O1461     Zr1468   2.382       .  S
O1462     Zr1467   2.392       .  S
O1462     Zr1468   2.371       .  S
O1462      H1497   0.967       .  S
O1463     Zr1466   2.392       .  S
O1463     Zr1483   2.396       .  S
O1463      H1500   0.967       .  S
O1464     Zr1467   2.394       .  S
O1464     Zr1483   2.391       .  S
Zr1465     O1490   2.440       .  S
Zr1465     O1484   2.443       .  S
Zr1465     O1492   2.435       .  S
Zr1465     O1480   2.442       .  S
Zr1465     O1471   2.404       .  S
Zr1465     O1472   2.406       .  S
Zr1465     O1473   2.381       .  S
Zr1465     O1474   2.382       .  S
Zr1466     O1485   2.435       .  S
Zr1466     O1478   2.435       .  S
Zr1466     O1479   2.403       .  S
Zr1466     O1472   2.393       .  S
Zr1466     O1473   2.391       .  S
Zr1467     O1469   2.435       .  S
Zr1467     O1491   2.437       .  S
Zr1467     O1493   2.428       .  S
Zr1467     O1471   2.389       .  S
Zr1467     O1474   2.387       .  S
Zr1468     O1494   2.436       .  S
Zr1468     O1495   2.437       .  S
Zr1468     O1470   2.436       .  S
Zr1468     O1471   2.393       .  S
Zr1468     O1472   2.385       .  S
O1469      H1506   0.990       .  S
O1470      H1501   0.990       .  S
O1470      H1515   0.990       .  S
O1472      H1498   0.966       .  S
O1473     Zr1483   2.380       .  S
O1474     Zr1483   2.381       .  S
O1474      H1499   0.965       .  S
C1475      C2574   1.493       .  S
C1476      C4702   1.472       .  S
C1477      C3022   1.472       .  S
O1478      H1514   0.990       .  S
O1479      C1481   1.280       .  A
O1480      C1481   1.286       .  A
C1481      C2854   1.476       .  S
O1482     Zr1483   2.440       .  S
O1482      H1511   0.990       .  S
Zr1483     O1486   2.437       .  S
Zr1483     O1487   2.440       .  S
Zr1483     O1488   2.416       .  S
O1484      C1489   1.285       .  A
O1485      H1502   0.990       .  S
O1485      H1517   0.989       .  S
O1486      H1503   0.990       .  S
O1487      H1507   0.990       .  S
O1487      H1516   0.990       .  S
O1488      C1489   1.281       .  A
C1489      C4394   1.479       .  S
O1490      H1509   0.990       .  S
O1490      H1513   0.990       .  S
O1491      H1505   0.990       .  S
O1491      H1512   0.990       .  S
O1492      C1496   1.284       .  A
O1493      C1496   1.284       .  A
O1494      H1504   0.990       .  S
O1495      H1508   0.990       .  S
C1496      C2449   1.486       .  S
Zr1519     O1520   2.439   1_556  S
Zr1519     O1521   2.421   1_556  S
Zr1519     O1522   2.477   1_556  S
Zr1519     O1525   2.454   1_556  S
Zr1519     O1527   2.384       .  S
Zr1519     O1528   2.395       .  S
Zr1519     O1529   2.403       .  S
Zr1519     O1530   2.394       .  S
O1520      H1576   0.990       .  S
O1520      H1584   0.990       .  S
O1521      C1541   1.282       .  A
O1522      C1543   1.291   1_554  A
O1523     Zr1533   2.401       .  S
O1523      C1542   1.281   1_556  A
O1524     Zr1532   2.403       .  S
O1524      C1543   1.279       .  A
O1525      C1542   1.289       .  A
O1526     Zr1534   2.423   1_554  S
O1526      C1541   1.283       .  A
O1527     Zr1532   2.390       .  S
O1527     Zr1534   2.375       .  S
O1528     Zr1533   2.390       .  S
O1528     Zr1534   2.371       .  S
O1528      H1563   0.966   1_556  S
O1529     Zr1532   2.391       .  S
O1529     Zr1549   2.395       .  S
O1529      H1566   0.968       .  S
O1530     Zr1533   2.395       .  S
O1530     Zr1549   2.379       .  S
Zr1531     O1556   2.442       .  S
Zr1531     O1550   2.457       .  S
Zr1531     O1558   2.441       .  S
Zr1531     O1546   2.434       .  S
Zr1531     O1537   2.405       .  S
Zr1531     O1538   2.415       .  S
Zr1531     O1539   2.384       .  S
Zr1531     O1540   2.380       .  S
Zr1532     O1551   2.436       .  S
Zr1532     O1544   2.435       .  S
Zr1532     O1545   2.402       .  S
Zr1532     O1538   2.394       .  S
Zr1532     O1539   2.387       .  S
Zr1533     O1535   2.435       .  S
Zr1533     O1557   2.437       .  S
Zr1533     O1559   2.430       .  S
Zr1533     O1537   2.388       .  S
Zr1533     O1540   2.385       .  S
Zr1534     O1560   2.436   1_556  S
Zr1534     O1561   2.435       .  S
Zr1534     O1536   2.438       .  S
Zr1534     O1537   2.398       .  S
Zr1534     O1538   2.387       .  S
O1535      H1572   0.990       .  S
O1536      H1567   0.990   1_556  S
O1536      H1581   0.990       .  S
O1538      H1564   0.967       .  S
O1539     Zr1549   2.381       .  S
O1540     Zr1549   2.388       .  S
O1540      H1565   0.967       .  S
C1541      C2546   1.475       .  S
C1542      C3681   1.487       .  S
C1543      C3106   1.493   1_556  S
O1544      H1580   0.990       .  S
O1545      C1547   1.279       .  A
O1546      C1547   1.284       .  A
C1547      C2421   1.473       .  S
O1548     Zr1549   2.439       .  S
O1548      H1577   0.990       .  S
Zr1549     O1552   2.437       .  S
Zr1549     O1553   2.438       .  S
Zr1549     O1554   2.397       .  S
O1550      C1555   1.288       .  A
O1551      H1568   0.990       .  S
O1551      H1583   0.990       .  S
O1552      H1569   0.990       .  S
O1553      H1573   0.989       .  S
O1553      H1582   0.990       .  S
O1554      C1555   1.278       .  A
C1555      C3498   1.484       .  S
O1556      H1575   0.990       .  S
O1556      H1579   0.990       .  S
O1557      H1571   0.990       .  S
O1557      H1578   0.990       .  S
O1558      C1562   1.285       .  A
O1559      C1562   1.283       .  A
O1560      H1570   0.990       .  S
O1561      H1574   0.990       .  S
C1562      C2462   1.491       .  S
Zr1585     O1586   2.441       .  S
Zr1585     O1587   2.427       .  S
Zr1585     O1588   2.461       .  S
Zr1585     O1591   2.439       .  S
Zr1585     O1593   2.377       .  S
Zr1585     O1594   2.392   1_545  S
Zr1585     O1595   2.404       .  S
Zr1585     O1596   2.398       .  S
O1586      H1642   0.990       .  S
O1586      H1650   0.990       .  S
O1587      C1607   1.283       .  A
O1588      C1609   1.287       .  A
O1589     Zr1599   2.416       .  S
O1589      C1608   1.283   1_565  A
O1590     Zr1598   2.410       .  S
O1590      C1609   1.282       .  A
O1591      C1608   1.286       .  A
O1592     Zr1600   2.427       .  S
O1592      C1607   1.282   1_565  A
O1593     Zr1598   2.394       .  S
O1593     Zr1600   2.381   1_545  S
O1594     Zr1599   2.394       .  S
O1594     Zr1600   2.374       .  S
O1594      H1629   0.966       .  S
O1595     Zr1598   2.391       .  S
O1595     Zr1615   2.401       .  S
O1595      H1632   0.967       .  S
O1596     Zr1599   2.392   1_545  S
O1596     Zr1615   2.384       .  S
Zr1597     O1622   2.442       .  S
Zr1597     O1616   2.453       .  S
Zr1597     O1624   2.427       .  S
Zr1597     O1612   2.424       .  S
Zr1597     O1603   2.406       .  S
Zr1597     O1604   2.411       .  S
Zr1597     O1605   2.375   1_565  S
Zr1597     O1606   2.374       .  S
Zr1598     O1617   2.435       .  S
Zr1598     O1610   2.435       .  S
Zr1598     O1611   2.410       .  S
Zr1598     O1604   2.396   1_545  S
Zr1598     O1605   2.386       .  S
Zr1599     O1601   2.434       .  S
Zr1599     O1623   2.436       .  S
Zr1599     O1625   2.434       .  S
Zr1599     O1603   2.389       .  S
Zr1599     O1606   2.389       .  S
Zr1600     O1626   2.437       .  S
Zr1600     O1627   2.436       .  S
Zr1600     O1602   2.438       .  S
Zr1600     O1603   2.400       .  S
Zr1600     O1604   2.392       .  S
O1601      H1638   0.990       .  S
O1602      H1633   0.990       .  S
O1602      H1647   0.990   1_565  S
O1604      H1630   0.966       .  S
O1605     Zr1615   2.379       .  S
O1606     Zr1615   2.380   1_565  S
O1606      H1631   0.966       .  S
C1607      C2365   1.492       .  S
C1608      C2350   1.477       .  S
C1609      C3778   1.490       .  S
O1610      H1646   0.990       .  S
O1611      C1613   1.280       .  A
O1612      C1613   1.283   1_565  A
C1613      C3625   1.465       .  S
O1614     Zr1615   2.439       .  S
O1614      H1643   0.990       .  S
Zr1615     O1618   2.437       .  S
Zr1615     O1619   2.438       .  S
Zr1615     O1620   2.417       .  S
O1616      C1621   1.288   1_565  A
O1617      H1634   0.990       .  S
O1617      H1649   0.990       .  S
O1618      H1635   0.990       .  S
O1619      H1639   0.990       .  S
O1619      H1648   0.990       .  S
O1620      C1621   1.281       .  A
C1621      C2309   1.491       .  S
O1622      H1641   0.990       .  S
O1622      H1645   0.990       .  S
O1623      H1637   0.990       .  S
O1623      H1644   0.990       .  S
O1624      C1628   1.283       .  A
O1625      C1628   1.284       .  A
O1626      H1636   0.990       .  S
O1627      H1640   0.990       .  S
C1628      C2406   1.489       .  S
Zr1651     O1652   2.438   1_556  S
Zr1651     O1653   2.437   1_556  S
Zr1651     O1654   2.473   1_556  S
Zr1651     O1657   2.435   1_556  S
Zr1651     O1659   2.377       .  S
Zr1651     O1660   2.394       .  S
Zr1651     O1661   2.404       .  S
Zr1651     O1662   2.404       .  S
O1652      H1708   0.990       .  S
O1652      H1716   0.990       .  S
O1653      C1673   1.285       .  A
O1654      C1675   1.290   1_554  A
O1655     Zr1665   2.399   1_554  S
O1655      C1674   1.281       .  A
O1656     Zr1664   2.395       .  S
O1656      C1675   1.279       .  A
O1657      C1674   1.285       .  A
O1658     Zr1666   2.446   1_554  S
O1658      C1673   1.286       .  A
O1659     Zr1664   2.390       .  S
O1659     Zr1666   2.376       .  S
O1660     Zr1665   2.402       .  S
O1660     Zr1666   2.366       .  S
O1660      H1695   0.967   1_556  S
O1661     Zr1664   2.395       .  S
O1661     Zr1681   2.398       .  S
O1661      H1698   0.965       .  S
O1662     Zr1665   2.395       .  S
O1662     Zr1681   2.382       .  S
Zr1663     O1688   2.443       .  S
Zr1663     O1682   2.449       .  S
Zr1663     O1690   2.435       .  S
Zr1663     O1678   2.430       .  S
Zr1663     O1669   2.406       .  S
Zr1663     O1670   2.413       .  S
Zr1663     O1671   2.375       .  S
Zr1663     O1672   2.379       .  S
Zr1664     O1683   2.436       .  S
Zr1664     O1676   2.433       .  S
Zr1664     O1677   2.405       .  S
Zr1664     O1670   2.392       .  S
Zr1664     O1671   2.384       .  S
Zr1665     O1667   2.435       .  S
Zr1665     O1689   2.439       .  S
Zr1665     O1691   2.436       .  S
Zr1665     O1669   2.385       .  S
Zr1665     O1672   2.384       .  S
Zr1666     O1692   2.437   1_556  S
Zr1666     O1693   2.436       .  S
Zr1666     O1668   2.436       .  S
Zr1666     O1669   2.399       .  S
Zr1666     O1670   2.404       .  S
O1667      H1704   0.990       .  S
O1668      H1699   0.990   1_556  S
O1668      H1713   0.990       .  S
O1670      H1696   0.966       .  S
O1671     Zr1681   2.379       .  S
O1672     Zr1681   2.385       .  S
O1672      H1697   0.967       .  S
C1673      C2294   1.507       .  S
C1674      C2938   1.474       .  S
C1675      C3890   1.499       .  S
O1676      H1712   0.990       .  S
O1677      C1679   1.279       .  A
O1678      C1679   1.284       .  A
C1679      C4590   1.480       .  S
O1680     Zr1681   2.439       .  S
O1680      H1709   0.990       .  S
Zr1681     O1684   2.437       .  S
Zr1681     O1685   2.439       .  S
Zr1681     O1686   2.404       .  S
O1682      C1687   1.286       .  A
O1683      H1700   0.990       .  S
O1683      H1715   0.990       .  S
O1684      H1701   0.990       .  S
O1685      H1705   0.990       .  S
O1685      H1714   0.990       .  S
O1686      C1687   1.279       .  A
C1687      C2645   1.482       .  S
O1688      H1707   0.991       .  S
O1688      H1711   0.990       .  S
O1689      H1703   0.990   1_556  S
O1689      H1710   0.990       .  S
O1690      C1694   1.283       .  A
O1691      C1694   1.283       .  A
O1692      H1702   0.989       .  S
O1693      H1706   0.990       .  S
C1694      C2393   1.479       .  S
Zr1717     O1718   2.438       .  S
Zr1717     O1719   2.428       .  S
Zr1717     O1720   2.460       .  S
Zr1717     O1723   2.435       .  S
Zr1717     O1725   2.380       .  S
Zr1717     O1726   2.389   1_545  S
Zr1717     O1727   2.401       .  S
Zr1717     O1728   2.404       .  S
O1718      H1774   0.990       .  S
O1718      H1782   0.990       .  S
O1719      C1739   1.284       .  A
O1720      C1741   1.288       .  A
O1721     Zr1731   2.410       .  S
O1721      C1740   1.281   1_565  A
O1722     Zr1730   2.417       .  S
O1722      C1741   1.282       .  A
O1723      C1740   1.286       .  A
O1724     Zr1732   2.423       .  S
O1724      C1739   1.282   1_565  A
O1725     Zr1730   2.386       .  S
O1725     Zr1732   2.377   1_545  S
O1726     Zr1731   2.392       .  S
O1726     Zr1732   2.368       .  S
O1726      H1761   0.966       .  S
O1727     Zr1730   2.391       .  S
O1727     Zr1747   2.397       .  S
O1727      H1764   0.968       .  S
O1728     Zr1731   2.395   1_545  S
O1728     Zr1747   2.391       .  S
Zr1729     O1754   2.442       .  S
Zr1729     O1748   2.452       .  S
Zr1729     O1756   2.441       .  S
Zr1729     O1744   2.443       .  S
Zr1729     O1735   2.399       .  S
Zr1729     O1736   2.419       .  S
Zr1729     O1737   2.384   1_565  S
Zr1729     O1738   2.382       .  S
Zr1730     O1749   2.435       .  S
Zr1730     O1742   2.434       .  S
Zr1730     O1743   2.401       .  S
Zr1730     O1736   2.398   1_545  S
Zr1730     O1737   2.396       .  S
Zr1731     O1733   2.435       .  S
Zr1731     O1755   2.440       .  S
Zr1731     O1757   2.436       .  S
Zr1731     O1735   2.378       .  S
Zr1731     O1738   2.386       .  S
Zr1732     O1758   2.435       .  S
Zr1732     O1759   2.435       .  S
Zr1732     O1734   2.436       .  S
Zr1732     O1735   2.387       .  S
Zr1732     O1736   2.394       .  S
O1733      H1770   0.990       .  S
O1734      H1765   0.990       .  S
O1734      H1779   0.990   1_565  S
O1736      H1762   0.965       .  S
O1737     Zr1747   2.383       .  S
O1738     Zr1747   2.388   1_565  S
O1738      H1763   0.966       .  S
C1739      C2378   1.486       .  S
C1740      C3470   1.476       .  S
C1741      C3961   1.485       .  S
O1742      H1778   0.989       .  S
O1743      C1745   1.279       .  A
O1744      C1745   1.284   1_565  A
C1745      C2238   1.471       .  S
O1746     Zr1747   2.439       .  S
O1746      H1775   0.990       .  S
Zr1747     O1750   2.437       .  S
Zr1747     O1751   2.439       .  S
Zr1747     O1752   2.414       .  S
O1748      C1753   1.286   1_565  A
O1749      H1766   0.990       .  S
O1749      H1781   0.990       .  S
O1750      H1767   0.990       .  S
O1751      H1771   0.990       .  S
O1751      H1780   0.990       .  S
O1752      C1753   1.280       .  A
C1753      C3582   1.481       .  S
O1754      H1773   0.991       .  S
O1754      H1777   0.990       .  S
O1755      H1769   0.990       .  S
O1755      H1776   0.990       .  S
O1756      C1760   1.286       .  A
O1757      C1760   1.285       .  A
O1758      H1768   0.990       .  S
O1759      H1772   0.990       .  S
C1760      C2253   1.492       .  S
Zr1783     O1784   2.441       .  S
Zr1783     O1785   2.425       .  S
Zr1783     O1786   2.450       .  S
Zr1783     O1789   2.419       .  S
Zr1783     O1791   2.378       .  S
Zr1783     O1792   2.391       .  S
Zr1783     O1793   2.399       .  S
Zr1783     O1794   2.398       .  S
O1784      H1840   0.990       .  S
O1784      H1848   0.990       .  S
O1785      C1805   1.283       .  A
O1786      C1807   1.286       .  A
O1787     Zr1797   2.402       .  S
O1787      C1806   1.281       .  A
O1788     Zr1796   2.414       .  S
O1788      C1807   1.282       .  A
O1789      C1806   1.282       .  A
O1790     Zr1798   2.448       .  S
O1790      C1805   1.287       .  A
O1791     Zr1796   2.395       .  S
O1791     Zr1798   2.376       .  S
O1792     Zr1797   2.396       .  S
O1792     Zr1798   2.367       .  S
O1792      H1827   0.967       .  S
O1793     Zr1796   2.394       .  S
O1793     Zr1813   2.387       .  S
O1793      H1830   0.965       .  S
O1794     Zr1797   2.393       .  S
O1794     Zr1813   2.379       .  S
Zr1795     O1820   2.444       .  S
Zr1795     O1814   2.455       .  S
Zr1795     O1822   2.431       .  S
Zr1795     O1810   2.431       .  S
Zr1795     O1801   2.410       .  S
Zr1795     O1802   2.418       .  S
Zr1795     O1803   2.379       .  S
Zr1795     O1804   2.376       .  S
Zr1796     O1815   2.436       .  S
Zr1796     O1808   2.433       .  S
Zr1796     O1809   2.421       .  S
Zr1796     O1802   2.398       .  S
Zr1796     O1803   2.393       .  S
Zr1797     O1799   2.436       .  S
Zr1797     O1821   2.437       .  S
Zr1797     O1823   2.441       .  S
Zr1797     O1801   2.384       .  S
Zr1797     O1804   2.383       .  S
Zr1798     O1824   2.435       .  S
Zr1798     O1825   2.436       .  S
Zr1798     O1800   2.436       .  S
Zr1798     O1801   2.407       .  S
Zr1798     O1802   2.396       .  S
O1799      H1836   0.990       .  S
O1800      H1831   0.990       .  S
O1800      H1845   0.990       .  S
O1802      H1828   0.966       .  S
O1803     Zr1813   2.381       .  S
O1804     Zr1813   2.385       .  S
O1804      H1829   0.966       .  S
C1805      C2281   1.492       .  S
C1806      C4325   1.464       .  S
C1807      C4101   1.487       .  S
O1808      H1844   0.990       .  S
O1809      C1811   1.282       .  A
O1810      C1811   1.282       .  A
C1811      C2686   1.480       .  S
O1812     Zr1813   2.438       .  S
O1812      H1841   0.990       .  S
Zr1813     O1816   2.437       .  S
Zr1813     O1817   2.440       .  S
Zr1813     O1818   2.389       .  S
O1814      C1819   1.287       .  A
O1815      H1832   0.990       .  S
O1815      H1847   0.990       .  S
O1816      H1833   0.990       .  S
O1817      H1837   0.990       .  S
O1817      H1846   0.990       .  S
O1818      C1819   1.275       .  A
C1819      C4534   1.478       .  S
O1820      H1839   0.990       .  S
O1820      H1843   0.991       .  S
O1821      H1835   0.990       .  S
O1821      H1842   0.990       .  S
O1822      C1826   1.285       .  A
O1823      C1826   1.285       .  A
O1824      H1834   0.990       .  S
O1825      H1838   0.990       .  S
C1826      C2266   1.503       .  S
Zr1849     O1850   2.442       .  S
Zr1849     O1851   2.446       .  S
Zr1849     O1852   2.432       .  S
Zr1849     O1855   2.414       .  S
Zr1849     O1857   2.372       .  S
Zr1849     O1858   2.385       .  S
Zr1849     O1859   2.410       .  S
Zr1849     O1860   2.404       .  S
O1850      H1906   0.991       .  S
O1850      H1914   0.990       .  S
O1851      C1871   1.285       .  A
O1852      C1873   1.282       .  A
O1853     Zr1863   2.397       .  S
O1853      C1872   1.279       .  A
O1854     Zr1862   2.435       .  S
O1854      C1873   1.284       .  A
O1855      C1872   1.280       .  A
O1856     Zr1864   2.416       .  S
O1856      C1871   1.281       .  A
O1857     Zr1862   2.385       .  S
O1857     Zr1864   2.382       .  S
O1858     Zr1863   2.391       .  S
O1858     Zr1864   2.375       .  S
O1858      H1893   0.966       .  S
O1859     Zr1862   2.393       .  S
O1859     Zr1879   2.404       .  S
O1859      H1896   0.964       .  S
O1860     Zr1863   2.392       .  S
O1860     Zr1879   2.390       .  S
Zr1861     O1886   2.441       .  S
Zr1861     O1880   2.426       .  S
Zr1861     O1888   2.453       .  S
Zr1861     O1876   2.433       .  S
Zr1861     O1867   2.400       .  S
Zr1861     O1868   2.410       .  S
Zr1861     O1869   2.383       .  S
Zr1861     O1870   2.378       .  S
Zr1862     O1881   2.435       .  S
Zr1862     O1874   2.434       .  S
Zr1862     O1875   2.398       .  S
Zr1862     O1868   2.401       .  S
Zr1862     O1869   2.388       .  S
Zr1863     O1865   2.436       .  S
Zr1863     O1887   2.436       .  S
Zr1863     O1889   2.415       .  S
Zr1863     O1867   2.381       .  S
Zr1863     O1870   2.384       .  S
Zr1864     O1890   2.435       .  S
Zr1864     O1891   2.435       .  S
Zr1864     O1866   2.437       .  S
Zr1864     O1867   2.397       .  S
Zr1864     O1868   2.394       .  S
O1865      H1902   0.990       .  S
O1866      H1897   0.990       .  S
O1866      H1911   0.990       .  S
O1868      H1894   0.967       .  S
O1869     Zr1879   2.365       .  S
O1870     Zr1879   2.370       .  S
O1870      H1895   0.966       .  S
C1871      C2490   1.483       .  S
C1872      C4017   1.466       .  S
C1873      C2197   1.490       .  S
O1874      H1910   0.990       .  S
O1875      C1877   1.280       .  A
O1876      C1877   1.285       .  A
C1877      C2434   1.475       .  S
O1878     Zr1879   2.438       .  S
O1878      H1907   0.991       .  S
Zr1879     O1882   2.438       .  S
Zr1879     O1883   2.439       .  S
Zr1879     O1884   2.430       .  S
O1880      C1885   1.283       .  A
O1881      H1898   0.990       .  S
O1881      H1913   0.989       .  S
O1882      H1899   0.990       .  S
O1883      H1903   0.990       .  S
O1883      H1912   0.990       .  S
O1884      C1885   1.285       .  A
C1885      C2169   1.495       .  S
O1886      H1905   0.990       .  S
O1886      H1909   0.990       .  S
O1887      H1901   0.990       .  S
O1887      H1908   0.990       .  S
O1888      C1892   1.288       .  A
O1889      C1892   1.282       .  A
O1890      H1900   0.990       .  S
O1891      H1904   0.990       .  S
C1892      C2714   1.488       .  S
Zr1915     O1916   2.443       .  S
Zr1915     O1917   2.458       .  S
Zr1915     O1918   2.443       .  S
Zr1915     O1921   2.436       .  S
Zr1915     O1923   2.379       .  S
Zr1915     O1924   2.387   1_545  S
Zr1915     O1925   2.418       .  S
Zr1915     O1926   2.409       .  S
O1916      H1972   0.990       .  S
O1916      H1980   0.990       .  S
O1917      C1937   1.286       .  A
O1918      C1939   1.286       .  A
O1919     Zr1929   2.425       .  S
O1919      C1938   1.283   1_565  A
O1920     Zr1928   2.421       .  S
O1920      C1939   1.281       .  A
O1921      C1938   1.284       .  A
O1922     Zr1930   2.411       .  S
O1922      C1937   1.279   1_565  A
O1923     Zr1928   2.397       .  S
O1923     Zr1930   2.386   1_545  S
O1924     Zr1929   2.394       .  S
O1924     Zr1930   2.377       .  S
O1924      H1959   0.967       .  S
O1925     Zr1928   2.395       .  S
O1925     Zr1945   2.401       .  S
O1925      H1962   0.964       .  S
O1926     Zr1929   2.385   1_545  S
O1926     Zr1945   2.395       .  S
Zr1927     O1952   2.439       .  S
Zr1927     O1946   2.441       .  S
Zr1927     O1954   2.456       .  S
Zr1927     O1942   2.449       .  S
Zr1927     O1933   2.410       .  S
Zr1927     O1934   2.409       .  S
Zr1927     O1935   2.382   1_565  S
Zr1927     O1936   2.382       .  S
Zr1928     O1947   2.437       .  S
Zr1928     O1940   2.434       .  S
Zr1928     O1941   2.411       .  S
Zr1928     O1934   2.400   1_545  S
Zr1928     O1935   2.389       .  S
Zr1929     O1931   2.434       .  S
Zr1929     O1953   2.437       .  S
Zr1929     O1955   2.424       .  S
Zr1929     O1933   2.390       .  S
Zr1929     O1936   2.393       .  S
Zr1930     O1956   2.437       .  S
Zr1930     O1957   2.435       .  S
Zr1930     O1932   2.438       .  S
Zr1930     O1933   2.397       .  S
Zr1930     O1934   2.385       .  S
O1931      H1968   0.990       .  S
O1932      H1963   0.990       .  S
O1932      H1977   0.990   1_565  S
O1934      H1960   0.967       .  S
O1935     Zr1945   2.374       .  S
O1936     Zr1945   2.369   1_565  S
O1936      H1961   0.966       .  S
C1937      C3134   1.486       .  S
C1938      C2337   1.481       .  S
C1939      C2210   1.493       .  S
O1940      H1976   0.990       .  S
O1941      C1943   1.282       .  A
O1942      C1943   1.288   1_565  A
C1943      C3317   1.472       .  S
O1944     Zr1945   2.438       .  S
O1944      H1973   0.990       .  S
Zr1945     O1948   2.437       .  S
Zr1945     O1949   2.440       .  S
Zr1945     O1950   2.440       .  S
O1946      C1951   1.286   1_565  A
O1947      H1964   0.990       .  S
O1947      H1979   0.990       .  S
O1948      H1965   0.990       .  S
O1949      H1969   0.990       .  S
O1949      H1978   0.990       .  S
O1950      C1951   1.286       .  A
C1951      C2141   1.505       .  S
O1952      H1971   0.990       .  S
O1952      H1975   0.990       .  S
O1953      H1967   0.990       .  S
O1953      H1974   0.990       .  S
O1954      C1958   1.288       .  A
O1955      C1958   1.283       .  A
O1956      H1966   0.990       .  S
O1957      H1970   0.990       .  S
C1958      C2630   1.488       .  S
Zr1981     O1982   2.441       .  S
Zr1981     O1983   2.437       .  S
Zr1981     O1984   2.449       .  S
Zr1981     O1987   2.417       .  S
Zr1981     O1989   2.377       .  S
Zr1981     O1990   2.388       .  S
Zr1981     O1991   2.402       .  S
Zr1981     O1992   2.406       .  S
O1982      H2038   0.990       .  S
O1982      H2046   0.990       .  S
O1983      C2003   1.283       .  A
O1984      C2005   1.285       .  A
O1985     Zr1995   2.408       .  S
O1985      C2004   1.280       .  A
O1986     Zr1994   2.437       .  S
O1986      C2005   1.285       .  A
O1987      C2004   1.281       .  A
O1988     Zr1996   2.415       .  S
O1988      C2003   1.281       .  A
O1989     Zr1994   2.390       .  S
O1989     Zr1996   2.388       .  S
O1990     Zr1995   2.391       .  S
O1990     Zr1996   2.375       .  S
O1990      H2025   0.967       .  S
O1991     Zr1994   2.391       .  S
O1991     Zr2011   2.396       .  S
O1991      H2028   0.965       .  S
O1992     Zr1995   2.393       .  S
O1992     Zr2011   2.396       .  S
Zr1993     O2018   2.443       .  S
Zr1993     O2012   2.436   1_554  S
Zr1993     O2020   2.450       .  S
Zr1993     O2008   2.428       .  S
Zr1993     O1999   2.401       .  S
Zr1993     O2000   2.410       .  S
Zr1993     O2001   2.385       .  S
Zr1993     O2002   2.378       .  S
Zr1994     O2013   2.437       .  S
Zr1994     O2006   2.436   1_655  S
Zr1994     O2007   2.405   1_655  S
Zr1994     O2000   2.400       .  S
Zr1994     O2001   2.395       .  S
Zr1995     O1997   2.435       .  S
Zr1995     O2019   2.436       .  S
Zr1995     O2021   2.425       .  S
Zr1995     O1999   2.387       .  S
Zr1995     O2002   2.381       .  S
Zr1996     O2022   2.435       .  S
Zr1996     O2023   2.436   1_655  S
Zr1996     O1998   2.438   1_655  S
Zr1996     O1999   2.397       .  S
Zr1996     O2000   2.389       .  S
O1997      H2034   0.990       .  S
O1998      H2029   0.990       .  S
O1998      H2043   0.990       .  S
O2000      H2026   0.967   1_655  S
O2001     Zr2011   2.369       .  S
O2002     Zr2011   2.371       .  S
O2002      H2027   0.965       .  S
C2003      C3989   1.486       .  S
C2004      C2505   1.466       .  S
C2005      C2126   1.500       .  S
O2006      H2042   0.990       .  S
O2007      C2009   1.280       .  A
O2008      C2009   1.285   1_655  A
C2009      C3834   1.477   1_554  S
O2010     Zr2011   2.439       .  S
O2010      H2039   0.991       .  S
Zr2011     O2014   2.437       .  S
Zr2011     O2015   2.438       .  S
Zr2011     O2016   2.436       .  S
O2012      C2017   1.287       .  A
O2013      H2030   0.991   1_655  S
O2013      H2045   0.990       .  S
O2014      H2031   0.989       .  S
O2015      H2035   0.990       .  S
O2015      H2044   0.990       .  S
O2016      C2017   1.284   1_554  A
C2017      C2182   1.500       .  S
O2018      H2037   0.990       .  S
O2018      H2041   0.990   1_655  S
O2019      H2033   0.990       .  S
O2019      H2040   0.990       .  S
O2020      C2024   1.288       .  A
O2021      C2024   1.284       .  A
O2022      H2032   0.990       .  S
O2023      H2036   0.990       .  S
C2024      C2798   1.492       .  S
Zr2047     O2048   2.440       .  S
Zr2047     O2049   2.444       .  S
Zr2047     O2050   2.448       .  S
Zr2047     O2053   2.429       .  S
Zr2047     O2055   2.373       .  S
Zr2047     O2056   2.389   1_545  S
Zr2047     O2057   2.413       .  S
Zr2047     O2058   2.404       .  S
O2048      H2104   0.990       .  S
O2048      H2112   0.990       .  S
O2049      C2069   1.285   1_545  A
O2050      C2071   1.286       .  A
O2051     Zr2061   2.414       .  S
O2051      C2070   1.282   1_565  A
O2052     Zr2060   2.433       .  S
O2052      C2071   1.284       .  A
O2053      C2070   1.282       .  A
O2054     Zr2062   2.417       .  S
O2054      C2069   1.281       .  A
O2055     Zr2060   2.390       .  S
O2055     Zr2062   2.386   1_545  S
O2056     Zr2061   2.392       .  S
O2056     Zr2062   2.379       .  S
O2056      H2091   0.967       .  S
O2057     Zr2060   2.392       .  S
O2057     Zr2077   2.402       .  S
O2057      H2094   0.964       .  S
O2058     Zr2061   2.387   1_545  S
O2058     Zr2077   2.389       .  S
Zr2059     O2084   2.446       .  S
Zr2059     O2078   2.447       .  S
Zr2059     O2086   2.460       .  S
Zr2059     O2074   2.440       .  S
Zr2059     O2065   2.406       .  S
Zr2059     O2066   2.412       .  S
Zr2059     O2067   2.388   1_565  S
Zr2059     O2068   2.376       .  S
Zr2060     O2079   2.436       .  S
Zr2060     O2072   2.437   1_655  S
Zr2060     O2073   2.401   1_655  S
Zr2060     O2066   2.400   1_545  S
Zr2060     O2067   2.393       .  S
Zr2061     O2063   2.436       .  S
Zr2061     O2085   2.436       .  S
Zr2061     O2087   2.421       .  S
Zr2061     O2065   2.386       .  S
Zr2061     O2068   2.389       .  S
Zr2062     O2088   2.436       .  S
Zr2062     O2089   2.436   1_655  S
Zr2062     O2064   2.436   1_655  S
Zr2062     O2065   2.400       .  S
Zr2062     O2066   2.389       .  S
O2063      H2100   0.990       .  S
O2064      H2095   0.990       .  S
O2064      H2109   0.990       .  S
O2066      H2092   0.965   1_655  S
O2067     Zr2077   2.372       .  S
O2068     Zr2077   2.371   1_565  S
O2068      H2093   0.966       .  S
C2069      C2322   1.489   1_565  S
C2070      C3149   1.471       .  S
C2071      C2113   1.499       .  S
O2072      H2108   0.990       .  S
O2073      C2075   1.281       .  A
O2074      C2075   1.285   1_665  A
C2075      C2225   1.486       .  S
O2076     Zr2077   2.438       .  S
O2076      H2105   0.990       .  S
Zr2077     O2080   2.437       .  S
Zr2077     O2081   2.440       .  S
Zr2077     O2082   2.432       .  S
O2078      C2083   1.288   1_565  A
O2079      H2096   0.990   1_655  S
O2079      H2111   0.990       .  S
O2080      H2097   0.990       .  S
O2081      H2101   0.990       .  S
O2081      H2110   0.990       .  S
O2082      C2083   1.284       .  A
C2083      C2154   1.498       .  S
O2084      H2103   0.990       .  S
O2084      H2107   0.990       .  S
O2085      H2099   0.990       .  S
O2085      H2106   0.990       .  S
O2086      C2090   1.290       .  A
O2087      C2090   1.283       .  A
O2088      H2098   0.990       .  S
O2089      H2102   0.990       .  S
C2090      C2910   1.493       .  S
C2113      C2114   1.416       .  A
C2113      C2118   1.411       .  A
C2114      C2115   1.404       .  A
C2114      N2119   1.431       .  S
C2115      C2116   1.402       .  A
C2115      H2120   1.084       .  S
C2116      C2121   1.493       .  S
C2116      C2117   1.411   1_655  A
C2117      C2118   1.410   1_455  A
C2117      N2122   1.438       .  S
C2118      H2123   1.083   1_655  S
N2119      H2139   1.046       .  S
N2119      H2140   1.046       .  S
C2121      C2124   1.403       .  A
C2121      C2128   1.410   1_655  A
N2122      H2137   1.046       .  S
N2122      H2138   1.046       .  S
C2124      C2125   1.409       .  A
C2124      H2129   1.084       .  S
C2125      C2126   1.419       .  A
C2125      N2130   1.437       .  S
C2126      C2127   1.410       .  A
C2127      C2128   1.409   1_655  A
C2127      H2131   1.083   1_655  S
C2128      N2132   1.438       .  S
N2130      H2133   1.046       .  S
N2130      H2134   1.045       .  S
N2132      H2135   1.046       .  S
N2132      H2136   1.046       .  S
C2141      C2142   1.422   1_545  A
C2141      C2146   1.411       .  A
C2142      C2143   1.411       .  A
C2142      N2147   1.438       .  S
C2143      C2144   1.402   1_565  A
C2143      H2148   1.084       .  S
C2144      C2149   1.493       .  S
C2144      C2145   1.409       .  A
C2145      C2146   1.409       .  A
C2145      N2150   1.438       .  S
C2146      H2151   1.083       .  S
N2147      H2167   1.046       .  S
N2147      H2168   1.046       .  S
C2149      C2152   1.402       .  A
C2149      C2156   1.410   1_545  A
N2150      H2165   1.045       .  S
N2150      H2166   1.046       .  S
C2152      C2153   1.410       .  A
C2152      H2157   1.084       .  S
C2153      C2154   1.420       .  A
C2153      N2158   1.438       .  S
C2154      C2155   1.408   1_545  A
C2155      C2156   1.410       .  A
C2155      H2159   1.083       .  S
C2156      N2160   1.437       .  S
N2158      H2161   1.046       .  S
N2158      H2162   1.046       .  S
N2160      H2163   1.046       .  S
N2160      H2164   1.046       .  S
C2169      C2170   1.421       .  A
C2169      C2174   1.410       .  A
C2170      C2171   1.408       .  A
C2170      N2175   1.438       .  S
C2171      C2172   1.401       .  A
C2171      H2176   1.084       .  S
C2172      C2177   1.482       .  S
C2172      C2173   1.406       .  A
C2173      C2174   1.403       .  A
C2173      N2178   1.438       .  S
C2174      H2179   1.083       .  S
N2175      H2195   1.045       .  S
N2175      H2196   1.046       .  S
C2177      C2180   1.399       .  A
C2177      C2184   1.406       .  A
N2178      H2193   1.046       .  S
N2178      H2194   1.046       .  S
C2180      C2181   1.407       .  A
C2180      H2185   1.084       .  S
C2181      C2182   1.423       .  A
C2181      N2186   1.438       .  S
C2182      C2183   1.411       .  A
C2183      C2184   1.406       .  A
C2183      H2187   1.083       .  S
C2184      N2188   1.438       .  S
N2186      H2189   1.046       .  S
N2186      H2190   1.045       .  S
N2188      H2191   1.045       .  S
N2188      H2192   1.046       .  S
C2197      C2198   1.416       .  A
C2197      C2202   1.410       .  A
C2198      C2199   1.403       .  A
C2198      N2203   1.436       .  S
C2199      C2200   1.399       .  A
C2199      H2204   1.084       .  S
C2200      C2205   1.481       .  S
C2200      C2201   1.408       .  A
C2201      C2202   1.407       .  A
C2201      N2206   1.438       .  S
C2202      H2207   1.084       .  S
N2203      H2223   1.045       .  S
N2203      H2224   1.046       .  S
C2205      C2208   1.400       .  A
C2205      C2212   1.407       .  A
N2206      H2221   1.046       .  S
N2206      H2222   1.046       .  S
C2208      C2209   1.408       .  A
C2208      H2213   1.084       .  S
C2209      C2210   1.421       .  A
C2209      N2214   1.438       .  S
C2210      C2211   1.408       .  A
C2211      C2212   1.402       .  A
C2211      H2215   1.083       .  S
C2212      N2216   1.439       .  S
N2214      H2217   1.046       .  S
N2214      H2218   1.046       .  S
N2216      H2219   1.046       .  S
N2216      H2220   1.046       .  S
C2225      C2226   1.418   1_545  A
C2225      C2230   1.412       .  A
C2226      C2227   1.406       .  A
C2226      N2231   1.437       .  S
C2227      C2228   1.400   1_565  A
C2227      H2232   1.084       .  S
C2228      C2233   1.469       .  S
C2228      C2229   1.401       .  A
C2229      C2230   1.395       .  A
C2229      N2234   1.439       .  S
C2230      H2235   1.083       .  S
N2231      H2251   1.045       .  S
N2231      H2252   1.046       .  S
C2233      C2236   1.403       .  A
C2233      C2240   1.404       .  A
N2234      H2249   1.046       .  S
N2234      H2250   1.046       .  S
C2236      C2237   1.403       .  A
C2236      H2241   1.084   1_545  S
C2237      C2238   1.410       .  A
C2237      N2242   1.438   1_545  S
C2238      C2239   1.406       .  A
C2239      C2240   1.398       .  A
C2239      H2243   1.084       .  S
C2240      N2244   1.438       .  S
N2242      H2245   1.046   1_565  S
N2242      H2246   1.046       .  S
N2244      H2247   1.046       .  S
N2244      H2248   1.046       .  S
C2253      C2254   1.418       .  A
C2253      C2258   1.409       .  A
C2254      C2255   1.405       .  A
C2254      N2259   1.438       .  S
C2255      C2256   1.401       .  A
C2255      H2260   1.084       .  S
C2256      C2261   1.487       .  S
C2256      C2257   1.409       .  A
C2257      C2258   1.410       .  A
C2257      N2262   1.437       .  S
C2258      H2263   1.083       .  S
N2259      H2279   1.046       .  S
N2259      H2280   1.046       .  S
C2261      C2264   1.401       .  A
C2261      C2268   1.406       .  A
N2262      H2277   1.046       .  S
N2262      H2278   1.046       .  S
C2264      C2265   1.412       .  A
C2264      H2269   1.084       .  S
C2265      C2266   1.422       .  A
C2265      N2270   1.437       .  S
C2266      C2267   1.412       .  A
C2267      C2268   1.404       .  A
C2267      H2271   1.082       .  S
C2268      N2272   1.438       .  S
N2270      H2273   1.046       .  S
N2270      H2274   1.045       .  S
N2272      H2275   1.046       .  S
N2272      H2276   1.046       .  S
C2281      C2282   1.415       .  A
C2281      C2286   1.408       .  A
C2282      C2283   1.411       .  A
C2282      N2287   1.437       .  S
C2283      C2284   1.404       .  A
C2283      H2288   1.084       .  S
C2284      C2289   1.492       .  S
C2284      C2285   1.410       .  A
C2285      C2286   1.409       .  A
C2285      N2290   1.437       .  S
C2286      H2291   1.084       .  S
N2287      H2307   1.046       .  S
N2287      H2308   1.046       .  S
C2289      C2292   1.401       .  A
C2289      C2296   1.408       .  A
N2290      H2305   1.046       .  S
N2290      H2306   1.046       .  S
C2292      C2293   1.410       .  A
C2292      H2297   1.084       .  S
C2293      C2294   1.422       .  A
C2293      N2298   1.437       .  S
C2294      C2295   1.413       .  A
C2295      C2296   1.411       .  A
C2295      H2299   1.083       .  S
C2296      N2300   1.438       .  S
N2298      H2301   1.046       .  S
N2298      H2302   1.045       .  S
N2300      H2303   1.046       .  S
N2300      H2304   1.046       .  S
C2309      C2310   1.414   1_545  A
C2309      C2314   1.409       .  A
C2310      C2311   1.408       .  A
C2310      N2315   1.438       .  S
C2311      C2312   1.404   1_566  A
C2311      H2316   1.084   1_556  S
C2312      C2317   1.490       .  S
C2312      C2313   1.410   1_554  A
C2313      C2314   1.407       .  A
C2313      N2318   1.438   1_455  S
C2314      H2319   1.084       .  S
N2315      H2335   1.046   1_565  S
N2315      H2336   1.046       .  S
C2317      C2320   1.404       .  A
C2317      C2324   1.410   1_545  A
N2318      H2333   1.046       .  S
N2318      H2334   1.046       .  S
C2320      C2321   1.409       .  A
C2320      H2325   1.084       .  S
C2321      C2322   1.416   1_455  A
C2321      N2326   1.438   1_455  S
C2322      C2323   1.407   1_645  A
C2323      C2324   1.407       .  A
C2323      H2327   1.084       .  S
C2324      N2328   1.438       .  S
N2326      H2329   1.046       .  S
N2326      H2330   1.046   1_655  S
N2328      H2331   1.045       .  S
N2328      H2332   1.046       .  S
C2337      C2338   1.414       .  A
C2337      C2342   1.405       .  A
C2338      C2339   1.402       .  A
C2338      N2343   1.438   1_545  S
C2339      C2340   1.401       .  A
C2339      H2344   1.084   1_545  S
C2340      C2345   1.484       .  S
C2340      C2341   1.412       .  A
C2341      C2342   1.407       .  A
C2341      N2346   1.438       .  S
C2342      H2347   1.084       .  S
N2343      H2363   1.046   1_565  S
N2343      H2364   1.046       .  S
C2345      C2348   1.403       .  A
C2345      C2352   1.411   1_645  A
N2346      H2361   1.046       .  S
N2346      H2362   1.046       .  S
C2348      C2349   1.406   1_655  A
C2348      H2353   1.084       .  S
C2349      C2350   1.413       .  A
C2349      N2354   1.438       .  S
C2350      C2351   1.403   1_545  A
C2351      C2352   1.402       .  A
C2351      H2355   1.084       .  S
C2352      N2356   1.438   1_455  S
N2354      H2357   1.046       .  S
N2354      H2358   1.046       .  S
N2356      H2359   1.046   1_655  S
N2356      H2360   1.045       .  S
C2365      C2366   1.419   1_545  A
C2365      C2370   1.409       .  A
C2366      C2367   1.407       .  A
C2366      N2371   1.438       .  S
C2367      C2368   1.401   1_565  A
C2367      H2372   1.084       .  S
C2368      C2373   1.479       .  S
C2368      C2369   1.406       .  A
C2369      C2370   1.402       .  A
C2369      N2374   1.438       .  S
C2370      H2375   1.083       .  S
N2371      H2391   1.046       .  S
N2371      H2392   1.046       .  S
C2373      C2376   1.400   1_545  A
C2373      C2380   1.407       .  A
N2374      H2389   1.046       .  S
N2374      H2390   1.046       .  S
C2376      C2377   1.405       .  A
C2376      H2381   1.084       .  S
C2377      C2378   1.418   1_565  A
C2377      N2382   1.438       .  S
C2378      C2379   1.407       .  A
C2379      C2380   1.404       .  A
C2379      H2383   1.083       .  S
C2380      N2384   1.438       .  S
N2382      H2385   1.046       .  S
N2382      H2386   1.046       .  S
N2384      H2387   1.046       .  S
N2384      H2388   1.046       .  S
C2393      C2394   1.412       .  A
C2393      C2398   1.405       .  A
C2394      C2395   1.403       .  A
C2394      N2399   1.438       .  S
C2395      C2396   1.400       .  A
C2395      H2400   1.084       .  S
C2396      C2401   1.480       .  S
C2396      C2397   1.409       .  A
C2397      C2398   1.410       .  A
C2397      N2402   1.437       .  S
C2398      H2403   1.084       .  S
N2399      H2419   1.046       .  S
N2399      H2420   1.046       .  S
C2401      C2404   1.400       .  A
C2401      C2408   1.406       .  A
N2402      H2417   1.046       .  S
N2402      H2418   1.046       .  S
C2404      C2405   1.408       .  A
C2404      H2409   1.084       .  S
C2405      C2406   1.417       .  A
C2405      N2410   1.437       .  S
C2406      C2407   1.409       .  A
C2407      C2408   1.404       .  A
C2407      H2411   1.084       .  S
C2408      N2412   1.438       .  S
N2410      H2413   1.046       .  S
N2410      H2414   1.046       .  S
N2412      H2415   1.046       .  S
N2412      H2416   1.046       .  S
C2421      C2422   1.411       .  A
C2421      C2426   1.408       .  A
C2422      C2423   1.401       .  A
C2422      N2427   1.438       .  S
C2423      C2424   1.401       .  A
C2423      H2428   1.084       .  S
C2424      C2429   1.464       .  S
C2424      C2425   1.402       .  A
C2425      C2426   1.397       .  A
C2425      N2430   1.438       .  S
C2426      H2431   1.083       .  S
N2427      H2447   1.046       .  S
N2427      H2448   1.046       .  S
C2429      C2432   1.401       .  A
C2429      C2436   1.402       .  A
N2430      H2445   1.046       .  S
N2430      H2446   1.046       .  S
C2432      C2433   1.405       .  A
C2432      H2437   1.084       .  S
C2433      C2434   1.414       .  A
C2433      N2438   1.437       .  S
C2434      C2435   1.408       .  A
C2435      C2436   1.393       .  A
C2435      H2439   1.083       .  S
C2436      N2440   1.439       .  S
N2438      H2441   1.046       .  S
N2438      H2442   1.046       .  S
N2440      H2443   1.046       .  S
N2440      H2444   1.046       .  S
C2449      C2450   1.416       .  A
C2449      C2454   1.408       .  A
C2450      C2451   1.404       .  A
C2450      N2455   1.438       .  S
C2451      C2452   1.399       .  A
C2451      H2456   1.084       .  S
C2452      C2457   1.479       .  S
C2452      C2453   1.408       .  A
C2453      C2454   1.408       .  A
C2453      N2458   1.438       .  S
C2454      H2459   1.084       .  S
N2455      H2475   1.046       .  S
N2455      H2476   1.046       .  S
C2457      C2460   1.400       .  A
C2457      C2464   1.407       .  A
N2458      H2473   1.046       .  S
N2458      H2474   1.045       .  S
C2460      C2461   1.409       .  A
C2460      H2465   1.084       .  S
C2461      C2462   1.419       .  A
C2461      N2466   1.438       .  S
C2462      C2463   1.408       .  A
C2463      C2464   1.405       .  A
C2463      H2467   1.083       .  S
C2464      N2468   1.438       .  S
N2466      H2469   1.046       .  S
N2466      H2470   1.045       .  S
N2468      H2471   1.046       .  S
N2468      H2472   1.045       .  S
C2477      C2478   1.423       .  A
C2477      C2482   1.407       .  A
C2478      C2479   1.405       .  A
C2478      N2483   1.438       .  S
C2479      C2480   1.398       .  A
C2479      H2484   1.084       .  S
C2480      C2485   1.489       .  S
C2480      C2481   1.412       .  A
C2481      C2482   1.411       .  A
C2481      N2486   1.438       .  S
C2482      H2487   1.083       .  S
N2483      H2503   1.046       .  S
N2483      H2504   1.046       .  S
C2485      C2488   1.402       .  A
C2485      C2492   1.413       .  A
N2486      H2501   1.045       .  S
N2486      H2502   1.046       .  S
C2488      C2489   1.405       .  A
C2488      H2493   1.084       .  S
C2489      C2490   1.413       .  A
C2489      N2494   1.438       .  S
C2490      C2491   1.405       .  A
C2491      C2492   1.410       .  A
C2491      H2495   1.084       .  S
C2492      N2496   1.438       .  S
N2494      H2497   1.046       .  S
N2494      H2498   1.046       .  S
N2496      H2499   1.046       .  S
N2496      H2500   1.046       .  S
C2505      C2506   1.409       .  A
C2505      C2510   1.403       .  A
C2506      C2507   1.398       .  A
C2506      N2511   1.438       .  S
C2507      C2508   1.402       .  A
C2507      H2512   1.084       .  S
C2508      C2513   1.472       .  S
C2508      C2509   1.408       .  A
C2509      C2510   1.402       .  A
C2509      N2514   1.438       .  S
C2510      H2515   1.084       .  S
N2511      H2531   1.046       .  S
N2511      H2532   1.046       .  S
C2513      C2516   1.402       .  A
C2513      C2520   1.406       .  A
N2514      H2529   1.046       .  S
N2514      H2530   1.046       .  S
C2516      C2517   1.404       .  A
C2516      H2521   1.084       .  S
C2517      C2518   1.413       .  A
C2517      N2522   1.438       .  S
C2518      C2519   1.404       .  A
C2519      C2520   1.396       .  A
C2519      H2523   1.084       .  S
C2520      N2524   1.438       .  S
N2522      H2525   1.046       .  S
N2522      H2526   1.046       .  S
N2524      H2527   1.046       .  S
N2524      H2528   1.046       .  S
C2533      C2534   1.420       .  A
C2533      C2538   1.410       .  A
C2534      C2535   1.403       .  A
C2534      N2539   1.438       .  S
C2535      C2536   1.400       .  A
C2535      H2540   1.084       .  S
C2536      C2541   1.480       .  S
C2536      C2537   1.407       .  A
C2537      C2538   1.405       .  A
C2537      N2542   1.438       .  S
C2538      H2543   1.083       .  S
N2539      H2559   1.046       .  S
N2539      H2560   1.046       .  S
C2541      C2544   1.403       .  A
C2541      C2548   1.409       .  A
N2542      H2557   1.046       .  S
N2542      H2558   1.046       .  S
C2544      C2545   1.407       .  A
C2544      H2549   1.084       .  S
C2545      C2546   1.413       .  A
C2545      N2550   1.438       .  S
C2546      C2547   1.402       .  A
C2547      C2548   1.400       .  A
C2547      H2551   1.084       .  S
C2548      N2552   1.438       .  S
N2550      H2553   1.046       .  S
N2550      H2554   1.046       .  S
N2552      H2555   1.046       .  S
N2552      H2556   1.045       .  S
C2561      C2562   1.419       .  A
C2561      C2566   1.409       .  A
C2562      C2563   1.407       .  A
C2562      N2567   1.438       .  S
C2563      C2564   1.402       .  A
C2563      H2568   1.084       .  S
C2564      C2569   1.490       .  S
C2564      C2565   1.410       .  A
C2565      C2566   1.407       .  A
C2565      N2570   1.438       .  S
C2566      H2571   1.083       .  S
N2567      H2587   1.046       .  S
N2567      H2588   1.046       .  S
C2569      C2572   1.403       .  A
C2569      C2576   1.409       .  A
N2570      H2585   1.046       .  S
N2570      H2586   1.046       .  S
C2572      C2573   1.408       .  A
C2572      H2577   1.084       .  S
C2573      C2574   1.418       .  A
C2573      N2578   1.438       .  S
C2574      C2575   1.409       .  A
C2575      C2576   1.406       .  A
C2575      H2579   1.083       .  S
C2576      N2580   1.438       .  S
N2578      H2581   1.046       .  S
N2578      H2582   1.045       .  S
N2580      H2583   1.046       .  S
N2580      H2584   1.046       .  S
C2589      C2590   1.420       .  A
C2589      C2594   1.412       .  A
C2590      C2591   1.406       .  A
C2590      N2595   1.437       .  S
C2591      C2592   1.398       .  A
C2591      H2596   1.084       .  S
C2592      C2597   1.485       .  S
C2592      C2593   1.409       .  A
C2593      C2594   1.411       .  A
C2593      N2598   1.438       .  S
C2594      H2599   1.083       .  S
N2595      H2615   1.046       .  S
N2595      H2616   1.046       .  S
C2597      C2600   1.399       .  A
C2597      C2604   1.408       .  A
N2598      H2613   1.046       .  S
N2598      H2614   1.044       .  S
C2600      C2601   1.409       .  A
C2600      H2605   1.084       .  S
C2601      C2602   1.423       .  A
C2601      N2606   1.438       .  S
C2602      C2603   1.410       .  A
C2603      C2604   1.408       .  A
C2603      H2607   1.083       .  S
C2604      N2608   1.438       .  S
N2606      H2609   1.046       .  S
N2606      H2610   1.045       .  S
N2608      H2611   1.046       .  S
N2608      H2612   1.044       .  S
C2617      C2618   1.419       .  A
C2617      C2622   1.408       .  A
C2618      C2619   1.400       .  A
C2618      N2623   1.433       .  S
C2619      C2620   1.399       .  A
C2619      H2624   1.084       .  S
C2620      C2625   1.495       .  S
C2620      C2621   1.414       .  A
C2621      C2622   1.416       .  A
C2621      N2626   1.437       .  S
C2622      H2627   1.083       .  S
N2623      H2643   1.046       .  S
N2623      H2644   1.046       .  S
C2625      C2628   1.402       .  A
C2625      C2632   1.415       .  A
N2626      H2641   1.046       .  S
N2626      H2642   1.046       .  S
C2628      C2629   1.406       .  A
C2628      H2633   1.083       .  S
C2629      C2630   1.415       .  A
C2629      N2634   1.438       .  S
C2630      C2631   1.404       .  A
C2631      C2632   1.412       .  A
C2631      H2635   1.084       .  S
C2632      N2636   1.437       .  S
N2634      H2637   1.046       .  S
N2634      H2638   1.046       .  S
N2636      H2639   1.046       .  S
N2636      H2640   1.045       .  S
C2645      C2646   1.413       .  A
C2645      C2650   1.407       .  A
C2646      C2647   1.406       .  A
C2646      N2651   1.438       .  S
C2647      C2648   1.404       .  A
C2647      H2652   1.084       .  S
C2648      C2653   1.481       .  S
C2648      C2649   1.407       .  A
C2649      C2650   1.402       .  A
C2649      N2654   1.438   1_455  S
C2650      H2655   1.084       .  S
N2651      H2671   1.046       .  S
N2651      H2672   1.046       .  S
C2653      C2656   1.403       .  A
C2653      C2660   1.408       .  A
N2654      H2669   1.046       .  S
N2654      H2670   1.045       .  S
C2656      C2657   1.406       .  A
C2656      H2661   1.084       .  S
C2657      C2658   1.413       .  A
C2657      N2662   1.436   1_455  S
C2658      C2659   1.407       .  A
C2659      C2660   1.403       .  A
C2659      H2663   1.084       .  S
C2660      N2664   1.438       .  S
N2662      H2665   1.046       .  S
N2662      H2666   1.046   1_655  S
N2664      H2667   1.046       .  S
N2664      H2668   1.046       .  S
C2673      C2674   1.409       .  A
C2673      C2678   1.398       .  A
C2674      C2675   1.398       .  A
C2674      N2679   1.439       .  S
C2675      C2676   1.399       .  A
C2675      H2680   1.084       .  S
C2676      C2681   1.474       .  S
C2676      C2677   1.412       .  A
C2677      C2678   1.405       .  A
C2677      N2682   1.437       .  S
C2678      H2683   1.084       .  S
N2679      H2699   1.045       .  S
N2679      H2700   1.046       .  S
C2681      C2684   1.401       .  A
C2681      C2688   1.406       .  A
N2682      H2697   1.046       .  S
N2682      H2698   1.046       .  S
C2684      C2685   1.404       .  A
C2684      H2689   1.084       .  S
C2685      C2686   1.414       .  A
C2685      N2690   1.438       .  S
C2686      C2687   1.407       .  A
C2687      C2688   1.400       .  A
C2687      H2691   1.083       .  S
C2688      N2692   1.438       .  S
N2690      H2693   1.046       .  S
N2690      H2694   1.046       .  S
N2692      H2695   1.046       .  S
N2692      H2696   1.046       .  S
C2701      C2702   1.415       .  A
C2701      C2706   1.410       .  A
C2702      C2703   1.408       .  A
C2702      N2707   1.432       .  S
C2703      C2704   1.403       .  A
C2703      H2708   1.084       .  S
C2704      C2709   1.486       .  S
C2704      C2705   1.409       .  A
C2705      C2706   1.403       .  A
C2705      N2710   1.439       .  S
C2706      H2711   1.083       .  S
N2707      H2727   1.046       .  S
N2707      H2728   1.046       .  S
C2709      C2712   1.405       .  A
C2709      C2716   1.408       .  A
N2710      H2725   1.046       .  S
N2710      H2726   1.046       .  S
C2712      C2713   1.411       .  A
C2712      H2717   1.084       .  S
C2713      C2714   1.414       .  A
C2713      N2718   1.437       .  S
C2714      C2715   1.407       .  A
C2715      C2716   1.402       .  A
C2715      H2719   1.084       .  S
C2716      N2720   1.439       .  S
N2718      H2721   1.046       .  S
N2718      H2722   1.045       .  S
N2720      H2723   1.046       .  S
N2720      H2724   1.046       .  S
C2729      C2730   1.414       .  A
C2729      C2734   1.405       .  A
C2730      C2731   1.400       .  A
C2730      N2735   1.438       .  S
C2731      C2732   1.400       .  A
C2731      H2736   1.084       .  S
C2732      C2737   1.473       .  S
C2732      C2733   1.406       .  A
C2733      C2734   1.403       .  A
C2733      N2738   1.437       .  S
C2734      H2739   1.084       .  S
N2735      H2755   1.046       .  S
N2735      H2756   1.046       .  S
C2737      C2740   1.402       .  A
C2737      C2744   1.405       .  A
N2738      H2753   1.046       .  S
N2738      H2754   1.046       .  S
C2740      C2741   1.406       .  A
C2740      H2745   1.084       .  S
C2741      C2742   1.414       .  A
C2741      N2746   1.438       .  S
C2742      C2743   1.406       .  A
C2743      C2744   1.398       .  A
C2743      H2747   1.084       .  S
C2744      N2748   1.438       .  S
N2746      H2749   1.046       .  S
N2746      H2750   1.044       .  S
N2748      H2751   1.046       .  S
N2748      H2752   1.046       .  S
C2757      C2758   1.421       .  A
C2757      C2762   1.411   1_655  A
C2758      C2759   1.402       .  A
C2758      N2763   1.437       .  S
C2759      C2760   1.400   1_655  A
C2759      H2764   1.084       .  S
C2760      C2765   1.491       .  S
C2760      C2761   1.411       .  A
C2761      C2762   1.410       .  A
C2761      N2766   1.437       .  S
C2762      H2767   1.083       .  S
N2763      H2783   1.046       .  S
N2763      H2784   1.044       .  S
C2765      C2768   1.403   1_455  A
C2765      C2772   1.413       .  A
N2766      H2781   1.046       .  S
N2766      H2782   1.045       .  S
C2768      C2769   1.406       .  A
C2768      H2773   1.083       .  S
C2769      C2770   1.415       .  A
C2769      N2774   1.437       .  S
C2770      C2771   1.406   1_655  A
C2771      C2772   1.406       .  A
C2771      H2775   1.083       .  S
C2772      N2776   1.438       .  S
N2774      H2777   1.046       .  S
N2774      H2778   1.046   1_655  S
N2776      H2779   1.046       .  S
N2776      H2780   1.045       .  S
C2785      C2786   1.415       .  A
C2785      C2790   1.404       .  A
C2786      C2787   1.405       .  A
C2786      N2791   1.438       .  S
C2787      C2788   1.403       .  A
C2787      H2792   1.083       .  S
C2788      C2793   1.494       .  S
C2788      C2789   1.414       .  A
C2789      C2790   1.411       .  A
C2789      N2794   1.437   1_554  S
C2790      H2795   1.083       .  S
N2791      H2811   1.046       .  S
N2791      H2812   1.046       .  S
C2793      C2796   1.402       .  A
C2793      C2800   1.414       .  A
N2794      H2809   1.046       .  S
N2794      H2810   1.046       .  S
C2796      C2797   1.402       .  A
C2796      H2801   1.084       .  S
C2797      C2798   1.414       .  A
C2797      N2802   1.433       .  S
C2798      C2799   1.407       .  A
C2799      C2800   1.412       .  A
C2799      H2803   1.083       .  S
C2800      N2804   1.437   1_554  S
N2802      H2805   1.046       .  S
N2802      H2806   1.046       .  S
N2804      H2807   1.046       .  S
N2804      H2808   1.046       .  S
C2813      C2814   1.414       .  A
C2813      C2818   1.407       .  A
C2814      C2815   1.409       .  A
C2814      N2819   1.438       .  S
C2815      C2816   1.406       .  A
C2815      H2820   1.083       .  S
C2816      C2821   1.493       .  S
C2816      C2817   1.411       .  A
C2817      C2818   1.407       .  A
C2817      N2822   1.438       .  S
C2818      H2823   1.084       .  S
N2819      H2839   1.046       .  S
N2819      H2840   1.046       .  S
C2821      C2824   1.406       .  A
C2821      C2828   1.411       .  A
N2822      H2837   1.046       .  S
N2822      H2838   1.046       .  S
C2824      C2825   1.407       .  A
C2824      H2829   1.084       .  S
C2825      C2826   1.411       .  A
C2825      N2830   1.432       .  S
C2826      C2827   1.408       .  A
C2827      C2828   1.407       .  A
C2827      H2831   1.084       .  S
C2828      N2832   1.438       .  S
N2830      H2833   1.046       .  S
N2830      H2834   1.045       .  S
N2832      H2835   1.046       .  S
N2832      H2836   1.046       .  S
C2841      C2842   1.415       .  A
C2841      C2846   1.408       .  A
C2842      C2843   1.405       .  A
C2842      N2847   1.438       .  S
C2843      C2844   1.401       .  A
C2843      H2848   1.084       .  S
C2844      C2849   1.471       .  S
C2844      C2845   1.404       .  A
C2845      C2846   1.396       .  A
C2845      N2850   1.439       .  S
C2846      H2851   1.083   1_556  S
N2847      H2867   1.046       .  S
N2847      H2868   1.046       .  S
C2849      C2852   1.402       .  A
C2849      C2856   1.404       .  A
N2850      H2865   1.046   1_556  S
N2850      H2866   1.046       .  S
C2852      C2853   1.403       .  A
C2852      H2857   1.084       .  S
C2853      C2854   1.411       .  A
C2853      N2858   1.437       .  S
C2854      C2855   1.408       .  A
C2855      C2856   1.399       .  A
C2855      H2859   1.083       .  S
C2856      N2860   1.439       .  S
N2858      H2861   1.046       .  S
N2858      H2862   1.045       .  S
N2860      H2863   1.046       .  S
N2860      H2864   1.046       .  S
C2869      C2870   1.418       .  A
C2869      C2874   1.409       .  A
C2870      C2871   1.408       .  A
C2870      N2875   1.438       .  S
C2871      C2872   1.401       .  A
C2871      H2876   1.084       .  S
C2872      C2877   1.485       .  S
C2872      C2873   1.408       .  A
C2873      C2874   1.407       .  A
C2873      N2878   1.438       .  S
C2874      H2879   1.083       .  S
N2875      H2895   1.046       .  S
N2875      H2896   1.046       .  S
C2877      C2880   1.399       .  A
C2877      C2884   1.407       .  A
N2878      H2893   1.046       .  S
N2878      H2894   1.046       .  S
C2880      C2881   1.408       .  A
C2880      H2885   1.084       .  S
C2881      C2882   1.423       .  A
C2881      N2886   1.438       .  S
C2882      C2883   1.412       .  A
C2883      C2884   1.409       .  A
C2883      H2887   1.083       .  S
C2884      N2888   1.438       .  S
N2886      H2889   1.046       .  S
N2886      H2890   1.046       .  S
N2888      H2891   1.046       .  S
N2888      H2892   1.046       .  S
C2897      C2898   1.417       .  A
C2897      C2902   1.406       .  A
C2898      C2899   1.403       .  A
C2898      N2903   1.438       .  S
C2899      C2900   1.401       .  A
C2899      H2904   1.083       .  S
C2900      C2905   1.494       .  S
C2900      C2901   1.414       .  A
C2901      C2902   1.413       .  A
C2901      N2906   1.437       .  S
C2902      H2907   1.083       .  S
N2903      H2923   1.046       .  S
N2903      H2924   1.046       .  S
C2905      C2908   1.402       .  A
C2905      C2912   1.414       .  A
N2906      H2921   1.046       .  S
N2906      H2922   1.046       .  S
C2908      C2909   1.403       .  A
C2908      H2913   1.084       .  S
C2909      C2910   1.415       .  A
C2909      N2914   1.432       .  S
C2910      C2911   1.406       .  A
C2911      C2912   1.412       .  A
C2911      H2915   1.083       .  S
C2912      N2916   1.437       .  S
N2914      H2917   1.046       .  S
N2914      H2918   1.046       .  S
N2916      H2919   1.046       .  S
N2916      H2920   1.045       .  S
C2925      C2926   1.412       .  A
C2925      C2930   1.405       .  A
C2926      C2927   1.393       .  A
C2926      N2931   1.433       .  S
C2927      C2928   1.396       .  A
C2927      H2932   1.084       .  S
C2928      C2933   1.463       .  S
C2928      C2929   1.407       .  A
C2929      C2930   1.402       .  A
C2929      N2934   1.438       .  S
C2930      H2935   1.084       .  S
N2931      H2951   1.046       .  S
N2931      H2952   1.046       .  S
C2933      C2936   1.399       .  A
C2933      C2940   1.403       .  A
N2934      H2949   1.046       .  S
N2934      H2950   1.046       .  S
C2936      C2937   1.403   1_655  A
C2936      H2941   1.084       .  S
C2937      C2938   1.415       .  A
C2937      N2942   1.437       .  S
C2938      C2939   1.406       .  A
C2939      C2940   1.395   1_455  A
C2939      H2943   1.084       .  S
C2940      N2944   1.439       .  S
N2942      H2945   1.046       .  S
N2942      H2946   1.046       .  S
N2944      H2947   1.046       .  S
N2944      H2948   1.046       .  S
C2953      C2954   1.417       .  A
C2953      C2958   1.408       .  A
C2954      C2955   1.405       .  A
C2954      N2959   1.438       .  S
C2955      C2956   1.400       .  A
C2955      H2960   1.084       .  S
C2956      C2961   1.480       .  S
C2956      C2957   1.407       .  A
C2957      C2958   1.406       .  A
C2957      N2962   1.437       .  S
C2958      H2963   1.083       .  S
N2959      H2979   1.046       .  S
N2959      H2980   1.046       .  S
C2961      C2964   1.401       .  A
C2961      C2968   1.404       .  A
N2962      H2977   1.046       .  S
N2962      H2978   1.046       .  S
C2964      C2965   1.409       .  A
C2964      H2969   1.084       .  S
C2965      C2966   1.420       .  A
C2965      N2970   1.438       .  S
C2966      C2967   1.410       .  A
C2967      C2968   1.403       .  A
C2967      H2971   1.083       .  S
C2968      N2972   1.438       .  S
N2970      H2973   1.046       .  S
N2970      H2974   1.046       .  S
N2972      H2975   1.046       .  S
N2972      H2976   1.046       .  S
C2981      C2982   1.417       .  A
C2981      C2986   1.407       .  A
C2982      C2983   1.408       .  A
C2982      N2987   1.436       .  S
C2983      C2984   1.401       .  A
C2983      H2988   1.084       .  S
C2984      C2989   1.486       .  S
C2984      C2985   1.409       .  A
C2985      C2986   1.409       .  A
C2985      N2990   1.437       .  S
C2986      H2991   1.083       .  S
N2987      H3007   1.045       .  S
N2987      H3008   1.046       .  S
C2989      C2992   1.399       .  A
C2989      C2996   1.409       .  A
N2990      H3005   1.046       .  S
N2990      H3006   1.046       .  S
C2992      C2993   1.403       .  A
C2992      H2997   1.084       .  S
C2993      C2994   1.417       .  A
C2993      N2998   1.432       .  S
C2994      C2995   1.411       .  A
C2995      C2996   1.411       .  A
C2995      H2999   1.083       .  S
C2996      N3000   1.437       .  S
N2998      H3001   1.046       .  S
N2998      H3002   1.046       .  S
N3000      H3003   1.046       .  S
N3000      H3004   1.046       .  S
C3009      C3010   1.412       .  A
C3009      C3014   1.403       .  A
C3010      C3011   1.408       .  A
C3010      N3015   1.438       .  S
C3011      C3012   1.404       .  A
C3011      H3016   1.084       .  S
C3012      C3017   1.480       .  S
C3012      C3013   1.408       .  A
C3013      C3014   1.400       .  A
C3013      N3018   1.438       .  S
C3014      H3019   1.084       .  S
N3015      H3035   1.045       .  S
N3015      H3036   1.046       .  S
C3017      C3020   1.401       .  A
C3017      C3024   1.410       .  A
N3018      H3033   1.046       .  S
N3018      H3034   1.046       .  S
C3020      C3021   1.398       .  A
C3020      H3025   1.084       .  S
C3021      C3022   1.409       .  A
C3021      N3026   1.438       .  S
C3022      C3023   1.405       .  A
C3023      C3024   1.412       .  A
C3023      H3027   1.083       .  S
C3024      N3028   1.437       .  S
N3026      H3029   1.046       .  S
N3026      H3030   1.046       .  S
N3028      H3031   1.045       .  S
N3028      H3032   1.046       .  S
C3037      C3038   1.415       .  A
C3037      C3042   1.409       .  A
C3038      C3039   1.410   1_556  A
C3038      N3043   1.438       .  S
C3039      C3040   1.406       .  A
C3039      H3044   1.083       .  S
C3040      C3045   1.490       .  S
C3040      C3041   1.409   1_554  A
C3041      C3042   1.402       .  A
C3041      N3046   1.439       .  S
C3042      H3047   1.083       .  S
N3043      H3063   1.045       .  S
N3043      H3064   1.046       .  S
C3045      C3048   1.404       .  A
C3045      C3052   1.409       .  A
N3046      H3061   1.046       .  S
N3046      H3062   1.045       .  S
C3048      C3049   1.408       .  A
C3048      H3053   1.083       .  S
C3049      C3050   1.415       .  A
C3049      N3054   1.436       .  S
C3050      C3051   1.410       .  A
C3051      C3052   1.406       .  A
C3051      H3055   1.083       .  S
C3052      N3056   1.438       .  S
N3054      H3057   1.046       .  S
N3054      H3058   1.045       .  S
N3056      H3059   1.046       .  S
N3056      H3060   1.046       .  S
C3065      C3066   1.412       .  A
C3065      C3070   1.407       .  A
C3066      C3067   1.403       .  A
C3066      N3071   1.432       .  S
C3067      C3068   1.404       .  A
C3067      H3072   1.084       .  S
C3068      C3073   1.478       .  S
C3068      C3069   1.407       .  A
C3069      C3070   1.398       .  A
C3069      N3074   1.438       .  S
C3070      H3075   1.083       .  S
N3071      H3091   1.046       .  S
N3071      H3092   1.046       .  S
C3073      C3076   1.402       .  A
C3073      C3080   1.409       .  A
N3074      H3089   1.046       .  S
N3074      H3090   1.046       .  S
C3076      C3077   1.401       .  A
C3076      H3081   1.084       .  S
C3077      C3078   1.413       .  A
C3077      N3082   1.438       .  S
C3078      C3079   1.405       .  A
C3079      C3080   1.403       .  A
C3079      H3083   1.083       .  S
C3080      N3084   1.438       .  S
N3082      H3085   1.046       .  S
N3082      H3086   1.046       .  S
N3084      H3087   1.046       .  S
N3084      H3088   1.046       .  S
C3093      C3094   1.414       .  A
C3093      C3098   1.406   1_556  A
C3094      C3095   1.404       .  A
C3094      N3099   1.439       .  S
C3095      C3096   1.403   1_556  A
C3095      H3100   1.084       .  S
C3096      C3101   1.493       .  S
C3096      C3097   1.412       .  A
C3097      C3098   1.414       .  A
C3097      N3102   1.437       .  S
C3098      H3103   1.083       .  S
N3099      H3119   1.046       .  S
N3099      H3120   1.046       .  S
C3101      C3104   1.406       .  A
C3101      C3108   1.409       .  A
N3102      H3117   1.046       .  S
N3102      H3118   1.045       .  S
C3104      C3105   1.414       .  A
C3104      H3109   1.083       .  S
C3105      C3106   1.414       .  A
C3105      N3110   1.436       .  S
C3106      C3107   1.409       .  A
C3107      C3108   1.405       .  A
C3107      H3111   1.084   1_554  S
C3108      N3112   1.438   1_554  S
N3110      H3113   1.045       .  S
N3110      H3114   1.045       .  S
N3112      H3115   1.046       .  S
N3112      H3116   1.045   1_556  S
C3121      C3122   1.415   1_545  A
C3121      C3126   1.408       .  A
C3122      C3123   1.411       .  A
C3122      N3127   1.437       .  S
C3123      C3124   1.403   1_565  A
C3123      H3128   1.084       .  S
C3124      C3129   1.483       .  S
C3124      C3125   1.407       .  A
C3125      C3126   1.406       .  A
C3125      N3130   1.438       .  S
C3126      H3131   1.084       .  S
N3127      H3147   1.045       .  S
N3127      H3148   1.046       .  S
C3129      C3132   1.398       .  A
C3129      C3136   1.412       .  A
N3130      H3145   1.046       .  S
N3130      H3146   1.045       .  S
C3132      C3133   1.404       .  A
C3132      H3137   1.084       .  S
C3133      C3134   1.415       .  A
C3133      N3138   1.438       .  S
C3134      C3135   1.406       .  A
C3135      C3136   1.413       .  A
C3135      H3139   1.084       .  S
C3136      N3140   1.437       .  S
N3138      H3141   1.046       .  S
N3138      H3142   1.046       .  S
N3140      H3143   1.046       .  S
N3140      H3144   1.045       .  S
C3149      C3150   1.412       .  A
C3149      C3154   1.403       .  A
C3150      C3151   1.406       .  A
C3150      N3155   1.438       .  S
C3151      C3152   1.403       .  A
C3151      H3156   1.084       .  S
C3152      C3157   1.472       .  S
C3152      C3153   1.405       .  A
C3153      C3154   1.397       .  A
C3153      N3158   1.438   1_545  S
C3154      H3159   1.084   1_545  S
N3155      H3175   1.046       .  S
N3155      H3176   1.046       .  S
C3157      C3160   1.400   1_545  A
C3157      C3164   1.406       .  A
N3158      H3173   1.046       .  S
N3158      H3174   1.046   1_565  S
C3160      C3161   1.400       .  A
C3160      H3165   1.084       .  S
C3161      C3162   1.412   1_565  A
C3161      N3166   1.438       .  S
C3162      C3163   1.408       .  A
C3163      C3164   1.404       .  A
C3163      H3167   1.083       .  S
C3164      N3168   1.437       .  S
N3166      H3169   1.046       .  S
N3166      H3170   1.046       .  S
N3168      H3171   1.046       .  S
N3168      H3172   1.046       .  S
C3177      C3178   1.421       .  A
C3177      C3182   1.410       .  A
C3178      C3179   1.414       .  A
C3178      N3183   1.438       .  S
C3179      C3180   1.405       .  A
C3179      H3184   1.083       .  S
C3180      C3185   1.498       .  S
C3180      C3181   1.411       .  A
C3181      C3182   1.405       .  A
C3181      N3186   1.438       .  S
C3182      H3187   1.082       .  S
N3183      H3203   1.045       .  S
N3183      H3204   1.046       .  S
C3185      C3188   1.403       .  A
C3185      C3192   1.415       .  A
N3186      H3201   1.046       .  S
N3186      H3202   1.046       .  S
C3188      C3189   1.402       .  A
C3188      H3193   1.084       .  S
C3189      C3190   1.412       .  A
C3189      N3194   1.432       .  S
C3190      C3191   1.409       .  A
C3191      C3192   1.416       .  A
C3191      H3195   1.083       .  S
C3192      N3196   1.437       .  S
N3194      H3197   1.046       .  S
N3194      H3198   1.046       .  S
N3196      H3199   1.046       .  S
N3196      H3200   1.046       .  S
C3205      C3206   1.417       .  A
C3205      C3210   1.407       .  A
C3206      C3207   1.413       .  A
C3206      N3211   1.436       .  S
C3207      C3208   1.403       .  A
C3207      H3212   1.083       .  S
C3208      C3213   1.478       .  S
C3208      C3209   1.405       .  A
C3209      C3210   1.397       .  A
C3209      N3214   1.439       .  S
C3210      H3215   1.084       .  S
N3211      H3231   1.045       .  S
N3211      H3232   1.046       .  S
C3213      C3216   1.399       .  A
C3213      C3220   1.410       .  A
N3214      H3229   1.046       .  S
N3214      H3230   1.045       .  S
C3216      C3217   1.402       .  A
C3216      H3221   1.084       .  S
C3217      C3218   1.413       .  A
C3217      N3222   1.438       .  S
C3218      C3219   1.405       .  A
C3219      C3220   1.409       .  A
C3219      H3223   1.084       .  S
C3220      N3224   1.438       .  S
N3222      H3225   1.046       .  S
N3222      H3226   1.046       .  S
N3224      H3227   1.046       .  S
N3224      H3228   1.045       .  S
C3233      C3234   1.413       .  A
C3233      C3238   1.401       .  A
C3234      C3235   1.394       .  A
C3234      N3239   1.439       .  S
C3235      C3236   1.393       .  A
C3235      H3240   1.084       .  S
C3236      C3241   1.460       .  S
C3236      C3237   1.408       .  A
C3237      C3238   1.404       .  A
C3237      N3242   1.437       .  S
C3238      H3243   1.084       .  S
N3239      H3259   1.046       .  S
N3239      H3260   1.046       .  S
C3241      C3244   1.396       .  A
C3241      C3248   1.403       .  A
N3242      H3257   1.046       .  S
N3242      H3258   1.045       .  S
C3244      C3245   1.398       .  A
C3244      H3249   1.084       .  S
C3245      C3246   1.416       .  A
C3245      N3250   1.439       .  S
C3246      C3247   1.408       .  A
C3247      C3248   1.400       .  A
C3247      H3251   1.083       .  S
C3248      N3252   1.438       .  S
N3250      H3253   1.046       .  S
N3250      H3254   1.046       .  S
N3252      H3255   1.046       .  S
N3252      H3256   1.045       .  S
C3261      C3262   1.416       .  A
C3261      C3266   1.408       .  A
C3262      C3263   1.407       .  A
C3262      N3267   1.438       .  S
C3263      C3264   1.403       .  A
C3263      H3268   1.084       .  S
C3264      C3269   1.492       .  S
C3264      C3265   1.412       .  A
C3265      C3266   1.408       .  A
C3265      N3270   1.438       .  S
C3266      H3271   1.084       .  S
N3267      H3287   1.046       .  S
N3267      H3288   1.046       .  S
C3269      C3272   1.403       .  A
C3269      C3276   1.410       .  A
N3270      H3285   1.046       .  S
N3270      H3286   1.045       .  S
C3272      C3273   1.409       .  A
C3272      H3277   1.084       .  S
C3273      C3274   1.420       .  A
C3273      N3278   1.438       .  S
C3274      C3275   1.410       .  A
C3275      C3276   1.405       .  A
C3275      H3279   1.083       .  S
C3276      N3280   1.438       .  S
N3278      H3281   1.046       .  S
N3278      H3282   1.046       .  S
N3280      H3283   1.046       .  S
N3280      H3284   1.046       .  S
C3289      C3290   1.413       .  A
C3289      C3294   1.404       .  A
C3290      C3291   1.410       .  A
C3290      N3295   1.438       .  S
C3291      C3292   1.403       .  A
C3291      H3296   1.084       .  S
C3292      C3297   1.483       .  S
C3292      C3293   1.408       .  A
C3293      C3294   1.404       .  A
C3293      N3298   1.437       .  S
C3294      H3299   1.084       .  S
N3295      H3315   1.046       .  S
N3295      H3316   1.046       .  S
C3297      C3300   1.400       .  A
C3297      C3304   1.410       .  A
N3298      H3313   1.046       .  S
N3298      H3314   1.046       .  S
C3300      C3301   1.400       .  A
C3300      H3305   1.084       .  S
C3301      C3302   1.413       .  A
C3301      N3306   1.439       .  S
C3302      C3303   1.407       .  A
C3303      C3304   1.414       .  A
C3303      H3307   1.084       .  S
C3304      N3308   1.436       .  S
N3306      H3309   1.046       .  S
N3306      H3310   1.046       .  S
N3308      H3311   1.046       .  S
N3308      H3312   1.046       .  S
C3317      C3318   1.414       .  A
C3317      C3322   1.403       .  A
C3318      C3319   1.399       .  A
C3318      N3323   1.439       .  S
C3319      C3320   1.396       .  A
C3319      H3324   1.084       .  S
C3320      C3325   1.472       .  S
C3320      C3321   1.410       .  A
C3321      C3322   1.408       .  A
C3321      N3326   1.437       .  S
C3322      H3327   1.084       .  S
N3323      H3343   1.046   1_545  S
N3323      H3344   1.046       .  S
C3325      C3328   1.398       .  A
C3325      C3332   1.405   1_545  A
N3326      H3341   1.046       .  S
N3326      H3342   1.046   1_545  S
C3328      C3329   1.403       .  A
C3328      H3333   1.084       .  S
C3329      C3330   1.418       .  A
C3329      N3334   1.438       .  S
C3330      C3331   1.409   1_545  A
C3331      C3332   1.403       .  A
C3331      H3335   1.083       .  S
C3332      N3336   1.438       .  S
N3334      H3337   1.046       .  S
N3334      H3338   1.046       .  S
N3336      H3339   1.046       .  S
N3336      H3340   1.046       .  S
C3345      C3346   1.419       .  A
C3345      C3350   1.407       .  A
C3346      C3347   1.407       .  A
C3346      N3351   1.438   1_545  S
C3347      C3348   1.402       .  A
C3347      H3352   1.084   1_545  S
C3348      C3353   1.485       .  S
C3348      C3349   1.409       .  A
C3349      C3350   1.404       .  A
C3349      N3354   1.438       .  S
C3350      H3355   1.083       .  S
N3351      H3371   1.046   1_565  S
N3351      H3372   1.046       .  S
C3353      C3356   1.401       .  A
C3353      C3360   1.409       .  A
N3354      H3369   1.046       .  S
N3354      H3370   1.046       .  S
C3356      C3357   1.406       .  A
C3356      H3361   1.084   1_545  S
C3357      C3358   1.418       .  A
C3357      N3362   1.438   1_545  S
C3358      C3359   1.410       .  A
C3359      C3360   1.406       .  A
C3359      H3363   1.083       .  S
C3360      N3364   1.438       .  S
N3362      H3365   1.046       .  S
N3362      H3366   1.046   1_565  S
N3364      H3367   1.046       .  S
N3364      H3368   1.046       .  S
C3373      C3374   1.415       .  A
C3373      C3378   1.407       .  A
C3374      C3375   1.410       .  A
C3374      N3379   1.437       .  S
C3375      C3376   1.402       .  A
C3375      H3380   1.084       .  S
C3376      C3381   1.480       .  S
C3376      C3377   1.407       .  A
C3377      C3378   1.403       .  A
C3377      N3382   1.438       .  S
C3378      H3383   1.084       .  S
N3379      H3399   1.046       .  S
N3379      H3400   1.046       .  S
C3381      C3384   1.398       .  A
C3381      C3388   1.408       .  A
N3382      H3397   1.046       .  S
N3382      H3398   1.045       .  S
C3384      C3385   1.404       .  A
C3384      H3389   1.084       .  S
C3385      C3386   1.420       .  A
C3385      N3390   1.438       .  S
C3386      C3387   1.408       .  A
C3387      C3388   1.408       .  A
C3387      H3391   1.083       .  S
C3388      N3392   1.438       .  S
N3390      H3393   1.046       .  S
N3390      H3394   1.046       .  S
N3392      H3395   1.046       .  S
N3392      H3396   1.045       .  S
C3401      C3402   1.416   1_545  A
C3401      C3406   1.404       .  A
C3402      C3403   1.403       .  A
C3402      N3407   1.438       .  S
C3403      C3404   1.401   1_565  A
C3403      H3408   1.084       .  S
C3404      C3409   1.487       .  S
C3404      C3405   1.412       .  A
C3405      C3406   1.406       .  A
C3405      N3410   1.438       .  S
C3406      H3411   1.084       .  S
N3407      H3427   1.045       .  S
N3407      H3428   1.046       .  S
C3409      C3412   1.400       .  A
C3409      C3416   1.412       .  A
N3410      H3425   1.046       .  S
N3410      H3426   1.046       .  S
C3412      C3413   1.404       .  A
C3412      H3417   1.084       .  S
C3413      C3414   1.419       .  A
C3413      N3418   1.438       .  S
C3414      C3415   1.405       .  A
C3415      C3416   1.407       .  A
C3415      H3419   1.083   1_545  S
C3416      N3420   1.438   1_545  S
N3418      H3421   1.046       .  S
N3418      H3422   1.046       .  S
N3420      H3423   1.046       .  S
N3420      H3424   1.046   1_565  S
C3429      C3430   1.414   1_545  A
C3429      C3434   1.410       .  A
C3430      C3431   1.406       .  A
C3430      N3435   1.437       .  S
C3431      C3432   1.401   1_565  A
C3431      H3436   1.084       .  S
C3432      C3437   1.467       .  S
C3432      C3433   1.402       .  A
C3433      C3434   1.397       .  A
C3433      N3438   1.439       .  S
C3434      H3439   1.083       .  S
N3435      H3455   1.046       .  S
N3435      H3456   1.046       .  S
C3437      C3440   1.400   1_545  A
C3437      C3444   1.403       .  A
N3438      H3453   1.046       .  S
N3438      H3454   1.045       .  S
C3440      C3441   1.405       .  A
C3440      H3445   1.084       .  S
C3441      C3442   1.415   1_565  A
C3441      N3446   1.438       .  S
C3442      C3443   1.409       .  A
C3443      C3444   1.397       .  A
C3443      H3447   1.083       .  S
C3444      N3448   1.439       .  S
N3446      H3449   1.046       .  S
N3446      H3450   1.046       .  S
N3448      H3451   1.046       .  S
N3448      H3452   1.045       .  S
C3457      C3458   1.413       .  A
C3457      C3462   1.405   1_565  A
C3458      C3459   1.397       .  A
C3458      N3463   1.433       .  S
C3459      C3460   1.397       .  A
C3459      H3464   1.084       .  S
C3460      C3465   1.471   1_565  S
C3460      C3461   1.408   1_565  A
C3461      C3462   1.403       .  A
C3461      N3466   1.438       .  S
C3462      H3467   1.084       .  S
N3463      H3483   1.046       .  S
N3463      H3484   1.046       .  S
C3465      C3468   1.401       .  A
C3465      C3472   1.405   1_545  A
N3466      H3481   1.046       .  S
N3466      H3482   1.046       .  S
C3468      C3469   1.404       .  A
C3468      H3473   1.084       .  S
C3469      C3470   1.413       .  A
C3469      N3474   1.437       .  S
C3470      C3471   1.406   1_545  A
C3471      C3472   1.399       .  A
C3471      H3475   1.084       .  S
C3472      N3476   1.438       .  S
N3474      H3477   1.046       .  S
N3474      H3478   1.046       .  S
N3476      H3479   1.046       .  S
N3476      H3480   1.046       .  S
C3485      C3486   1.420       .  A
C3485      C3490   1.406       .  A
C3486      C3487   1.403       .  A
C3486      N3491   1.438       .  S
C3487      C3488   1.399       .  A
C3487      H3492   1.084       .  S
C3488      C3493   1.487       .  S
C3488      C3489   1.412       .  A
C3489      C3490   1.408       .  A
C3489      N3494   1.438       .  S
C3490      H3495   1.084       .  S
N3491      H3511   1.045       .  S
N3491      H3512   1.046       .  S
C3493      C3496   1.400       .  A
C3493      C3500   1.413       .  A
N3494      H3509   1.046       .  S
N3494      H3510   1.046       .  S
C3496      C3497   1.401       .  A
C3496      H3501   1.084       .  S
C3497      C3498   1.418       .  A
C3497      N3502   1.438       .  S
C3498      C3499   1.404       .  A
C3499      C3500   1.408       .  A
C3499      H3503   1.084       .  S
C3500      N3504   1.437       .  S
N3502      H3505   1.046       .  S
N3502      H3506   1.045       .  S
N3504      H3507   1.046       .  S
N3504      H3508   1.045       .  S
C3513      C3514   1.420       .  A
C3513      C3518   1.409       .  A
C3514      C3515   1.404       .  A
C3514      N3519   1.437       .  S
C3515      C3516   1.397       .  A
C3515      H3520   1.084       .  S
C3516      C3521   1.468       .  S
C3516      C3517   1.403       .  A
C3517      C3518   1.399       .  A
C3517      N3522   1.438       .  S
C3518      H3523   1.083       .  S
N3519      H3539   1.046       .  S
N3519      H3540   1.046       .  S
C3521      C3524   1.404       .  A
C3521      C3528   1.404       .  A
N3522      H3537   1.046       .  S
N3522      H3538   1.046       .  S
C3524      C3525   1.404       .  A
C3524      H3529   1.084       .  S
C3525      C3526   1.407       .  A
C3525      N3530   1.437       .  S
C3526      C3527   1.405       .  A
C3527      C3528   1.397       .  A
C3527      H3531   1.084       .  S
C3528      N3532   1.438       .  S
N3530      H3533   1.046       .  S
N3530      H3534   1.046       .  S
N3532      H3535   1.046       .  S
N3532      H3536   1.046       .  S
C3541      C3542   1.418       .  A
C3541      C3546   1.409       .  A
C3542      C3543   1.412       .  A
C3542      N3547   1.437       .  S
C3543      C3544   1.406       .  A
C3543      H3548   1.083       .  S
C3544      C3549   1.499       .  S
C3544      C3545   1.412       .  A
C3545      C3546   1.407       .  A
C3545      N3550   1.438       .  S
C3546      H3551   1.083       .  S
N3547      H3567   1.046       .  S
N3547      H3568   1.046       .  S
C3549      C3552   1.404       .  A
C3549      C3556   1.413       .  A
N3550      H3565   1.045       .  S
N3550      H3566   1.045       .  S
C3552      C3553   1.406       .  A
C3552      H3557   1.083       .  S
C3553      C3554   1.417       .  A
C3553      N3558   1.437       .  S
C3554      C3555   1.411       .  A
C3555      C3556   1.412       .  A
C3555      H3559   1.083       .  S
C3556      N3560   1.438       .  S
N3558      H3561   1.046       .  S
N3558      H3562   1.046       .  S
N3560      H3563   1.046       .  S
N3560      H3564   1.046       .  S
C3569      C3570   1.414       .  A
C3569      C3574   1.406       .  A
C3570      C3571   1.410       .  A
C3570      N3575   1.438       .  S
C3571      C3572   1.403       .  A
C3571      H3576   1.084       .  S
C3572      C3577   1.480       .  S
C3572      C3573   1.406       .  A
C3573      C3574   1.403       .  A
C3573      N3578   1.438       .  S
C3574      H3579   1.084       .  S
N3575      H3595   1.046   1_545  S
N3575      H3596   1.046       .  S
C3577      C3580   1.400       .  A
C3577      C3584   1.409   1_545  A
N3578      H3593   1.045       .  S
N3578      H3594   1.045   1_545  S
C3580      C3581   1.406       .  A
C3580      H3585   1.084       .  S
C3581      C3582   1.414       .  A
C3581      N3586   1.438       .  S
C3582      C3583   1.405   1_545  A
C3583      C3584   1.407       .  A
C3583      H3587   1.084       .  S
C3584      N3588   1.438       .  S
N3586      H3589   1.046       .  S
N3586      H3590   1.046       .  S
N3588      H3591   1.046       .  S
N3588      H3592   1.045       .  S
C3597      C3598   1.411       .  A
C3597      C3602   1.404   1_545  A
C3598      C3599   1.403       .  A
C3598      N3603   1.438       .  S
C3599      C3600   1.402       .  A
C3599      H3604   1.084       .  S
C3600      C3605   1.472       .  S
C3600      C3601   1.407       .  A
C3601      C3602   1.399   1_545  A
C3601      N3606   1.438   1_545  S
C3602      H3607   1.084       .  S
N3603      H3623   1.046       .  S
N3603      H3624   1.046       .  S
C3605      C3608   1.400   1_545  A
C3605      C3612   1.408       .  A
N3606      H3621   1.046       .  S
N3606      H3622   1.045   1_565  S
C3608      C3609   1.396       .  A
C3608      H3613   1.084       .  S
C3609      C3610   1.409   1_565  A
C3609      N3614   1.433       .  S
C3610      C3611   1.405       .  A
C3611      C3612   1.404       .  A
C3611      H3615   1.084       .  S
C3612      N3616   1.438       .  S
N3614      H3617   1.046       .  S
N3614      H3618   1.046       .  S
N3616      H3619   1.046       .  S
N3616      H3620   1.046       .  S
C3625      C3626   1.409       .  A
C3625      C3630   1.402   1_545  A
C3626      C3627   1.400       .  A
C3626      N3631   1.438       .  S
C3627      C3628   1.403       .  A
C3627      H3632   1.084       .  S
C3628      C3633   1.477       .  S
C3628      C3629   1.411   1_545  A
C3629      C3630   1.399       .  A
C3629      N3634   1.438       .  S
C3630      H3635   1.084       .  S
N3631      H3651   1.045       .  S
N3631      H3652   1.046       .  S
C3633      C3636   1.401   1_545  A
C3633      C3640   1.413       .  A
N3634      H3649   1.046       .  S
N3634      H3650   1.046       .  S
C3636      C3637   1.396   1_556  A
C3636      H3641   1.084       .  S
C3637      C3638   1.407   1_564  A
C3637      N3642   1.439       .  S
C3638      C3639   1.398       .  A
C3639      C3640   1.402       .  A
C3639      H3643   1.084       .  S
C3640      N3644   1.438       .  S
N3642      H3645   1.046       .  S
N3642      H3646   1.045       .  S
N3644      H3647   1.046       .  S
N3644      H3648   1.046       .  S
C3653      C3654   1.417       .  A
C3653      C3658   1.408   1_565  A
C3654      C3655   1.406       .  A
C3654      N3659   1.438       .  S
C3655      C3656   1.403       .  A
C3655      H3660   1.084       .  S
C3656      C3661   1.487   1_565  S
C3656      C3657   1.410   1_565  A
C3657      C3658   1.404       .  A
C3657      N3662   1.438       .  S
C3658      H3663   1.083       .  S
N3659      H3679   1.046       .  S
N3659      H3680   1.046       .  S
C3661      C3664   1.401       .  A
C3661      C3668   1.409   1_545  A
N3662      H3677   1.046       .  S
N3662      H3678   1.046       .  S
C3664      C3665   1.406       .  A
C3664      H3669   1.084       .  S
C3665      C3666   1.419       .  A
C3665      N3670   1.438       .  S
C3666      C3667   1.409   1_545  A
C3667      C3668   1.406       .  A
C3667      H3671   1.083       .  S
C3668      N3672   1.438       .  S
N3670      H3673   1.046       .  S
N3670      H3674   1.046       .  S
N3672      H3675   1.045       .  S
N3672      H3676   1.046       .  S
C3681      C3682   1.414       .  A
C3681      C3686   1.411       .  A
C3682      C3683   1.406       .  A
C3682      N3687   1.437       .  S
C3683      C3684   1.402       .  A
C3683      H3688   1.084       .  S
C3684      C3689   1.476       .  S
C3684      C3685   1.404       .  A
C3685      C3686   1.401       .  A
C3685      N3690   1.438       .  S
C3686      H3691   1.083       .  S
N3687      H3707   1.045       .  S
N3687      H3708   1.046       .  S
C3689      C3692   1.401       .  A
C3689      C3696   1.406       .  A
N3690      H3705   1.046       .  S
N3690      H3706   1.046       .  S
C3692      C3693   1.403       .  A
C3692      H3697   1.084       .  S
C3693      C3694   1.415       .  A
C3693      N3698   1.438       .  S
C3694      C3695   1.407       .  A
C3695      C3696   1.402       .  A
C3695      H3699   1.083       .  S
C3696      N3700   1.438       .  S
N3698      H3701   1.046       .  S
N3698      H3702   1.046       .  S
N3700      H3703   1.046       .  S
N3700      H3704   1.046       .  S
C3709      C3710   1.419       .  A
C3709      C3714   1.408       .  A
C3710      C3711   1.410       .  A
C3710      N3715   1.438       .  S
C3711      C3712   1.401       .  A
C3711      H3716   1.084       .  S
C3712      C3717   1.485       .  S
C3712      C3713   1.407       .  A
C3713      C3714   1.406       .  A
C3713      N3718   1.438       .  S
C3714      H3719   1.083       .  S
N3715      H3735   1.045       .  S
N3715      H3736   1.046       .  S
C3717      C3720   1.400       .  A
C3717      C3724   1.408       .  A
N3718      H3733   1.046       .  S
N3718      H3734   1.046       .  S
C3720      C3721   1.408       .  A
C3720      H3725   1.084       .  S
C3721      C3722   1.420       .  A
C3721      N3726   1.438       .  S
C3722      C3723   1.408       .  A
C3723      C3724   1.408       .  A
C3723      H3727   1.083       .  S
C3724      N3728   1.437       .  S
N3726      H3729   1.046       .  S
N3726      H3730   1.046       .  S
N3728      H3731   1.046       .  S
N3728      H3732   1.046       .  S
C3737      C3738   1.417       .  A
C3737      C3742   1.409       .  A
C3738      C3739   1.402       .  A
C3738      N3743   1.432       .  S
C3739      C3740   1.401       .  A
C3739      H3744   1.084       .  S
C3740      C3745   1.493       .  S
C3740      C3741   1.413       .  A
C3741      C3742   1.411       .  A
C3741      N3746   1.438       .  S
C3742      H3747   1.083       .  S
N3743      H3763   1.046       .  S
N3743      H3764   1.045       .  S
C3745      C3748   1.403       .  A
C3745      C3752   1.413       .  A
N3746      H3761   1.045       .  S
N3746      H3762   1.046       .  S
C3748      C3749   1.403       .  A
C3748      H3753   1.084       .  S
C3749      C3750   1.415       .  A
C3749      N3754   1.432       .  S
C3750      C3751   1.409       .  A
C3751      C3752   1.408       .  A
C3751      H3755   1.083       .  S
C3752      N3756   1.438       .  S
N3754      H3757   1.046       .  S
N3754      H3758   1.046       .  S
N3756      H3759   1.046       .  S
N3756      H3760   1.045       .  S
C3765      C3766   1.413       .  A
C3765      C3770   1.406       .  A
C3766      C3767   1.402       .  A
C3766      N3771   1.433       .  S
C3767      C3768   1.400       .  A
C3767      H3772   1.084       .  S
C3768      C3773   1.485       .  S
C3768      C3769   1.412       .  A
C3769      C3770   1.413       .  A
C3769      N3774   1.437       .  S
C3770      H3775   1.084       .  S
N3771      H3791   1.046       .  S
N3771      H3792   1.045       .  S
C3773      C3776   1.405       .  A
C3773      C3780   1.407       .  A
N3774      H3789   1.046       .  S
N3774      H3790   1.046       .  S
C3776      C3777   1.415       .  A
C3776      H3781   1.083       .  S
C3777      C3778   1.416       .  A
C3777      N3782   1.437       .  S
C3778      C3779   1.406       .  A
C3779      C3780   1.400       .  A
C3779      H3783   1.084       .  S
C3780      N3784   1.439       .  S
N3782      H3785   1.046       .  S
N3782      H3786   1.046       .  S
N3784      H3787   1.046       .  S
N3784      H3788   1.045       .  S
C3793      C3794   1.417       .  A
C3793      C3798   1.411       .  A
C3794      C3795   1.411   1_556  A
C3794      N3799   1.437       .  S
C3795      C3796   1.405       .  A
C3795      H3800   1.084       .  S
C3796      C3801   1.487       .  S
C3796      C3797   1.406   1_554  A
C3797      C3798   1.402       .  A
C3797      N3802   1.439       .  S
C3798      H3803   1.083       .  S
N3799      H3819   1.045       .  S
N3799      H3820   1.046       .  S
C3801      C3804   1.405       .  A
C3801      C3808   1.409       .  A
N3802      H3817   1.046       .  S
N3802      H3818   1.046       .  S
C3804      C3805   1.408       .  A
C3804      H3809   1.084       .  S
C3805      C3806   1.413       .  A
C3805      N3810   1.438       .  S
C3806      C3807   1.406       .  A
C3807      C3808   1.405       .  A
C3807      H3811   1.084       .  S
C3808      N3812   1.438       .  S
N3810      H3813   1.046       .  S
N3810      H3814   1.046       .  S
N3812      H3815   1.046       .  S
N3812      H3816   1.046       .  S
C3821      C3822   1.414       .  A
C3821      C3826   1.402       .  A
C3822      C3823   1.398       .  A
C3822      N3827   1.438       .  S
C3823      C3824   1.395       .  A
C3823      H3828   1.084       .  S
C3824      C3829   1.462       .  S
C3824      C3825   1.407       .  A
C3825      C3826   1.401       .  A
C3825      N3830   1.438       .  S
C3826      H3831   1.084       .  S
N3827      H3847   1.046       .  S
N3827      H3848   1.046       .  S
C3829      C3832   1.394       .  A
C3829      C3836   1.404       .  A
N3830      H3845   1.046       .  S
N3830      H3846   1.045       .  S
C3832      C3833   1.397       .  A
C3832      H3837   1.084       .  S
C3833      C3834   1.418       .  A
C3833      N3838   1.439   1_556  S
C3834      C3835   1.407       .  A
C3835      C3836   1.402       .  A
C3835      H3839   1.083       .  S
C3836      N3840   1.438       .  S
N3838      H3841   1.046   1_554  S
N3838      H3842   1.045   1_554  S
N3840      H3843   1.046       .  S
N3840      H3844   1.045       .  S
C3849      C3850   1.415       .  A
C3849      C3854   1.403       .  A
C3850      C3851   1.398       .  A
C3850      N3855   1.439       .  S
C3851      C3852   1.396       .  A
C3851      H3856   1.084       .  S
C3852      C3857   1.466       .  S
C3852      C3853   1.408       .  A
C3853      C3854   1.403       .  A
C3853      N3858   1.438       .  S
C3854      H3859   1.084       .  S
N3855      H3875   1.046       .  S
N3855      H3876   1.046       .  S
C3857      C3860   1.398       .  A
C3857      C3864   1.406       .  A
N3858      H3873   1.046       .  S
N3858      H3874   1.046       .  S
C3860      C3861   1.402       .  A
C3860      H3865   1.084       .  S
C3861      C3862   1.415       .  A
C3861      N3866   1.438       .  S
C3862      C3863   1.404       .  A
C3863      C3864   1.398       .  A
C3863      H3867   1.084       .  S
C3864      N3868   1.438       .  S
N3866      H3869   1.046       .  S
N3866      H3870   1.046       .  S
N3868      H3871   1.046       .  S
N3868      H3872   1.046       .  S
C3877      C3878   1.414       .  A
C3877      C3882   1.407   1_556  A
C3878      C3879   1.405   1_556  A
C3878      N3883   1.438       .  S
C3879      C3880   1.400       .  A
C3879      H3884   1.084   1_554  S
C3880      C3885   1.484       .  S
C3880      C3881   1.413       .  A
C3881      C3882   1.412       .  A
C3881      N3886   1.439       .  S
C3882      H3887   1.084       .  S
N3883      H3903   1.046   1_556  S
N3883      H3904   1.046       .  S
C3885      C3888   1.406       .  A
C3885      C3892   1.407   1_554  A
N3886      H3901   1.046       .  S
N3886      H3902   1.044       .  S
C3888      C3889   1.413       .  A
C3888      H3893   1.083       .  S
C3889      C3890   1.414   1_554  A
C3889      N3894   1.432       .  S
C3890      C3891   1.412       .  A
C3891      C3892   1.400       .  A
C3891      H3895   1.083       .  S
C3892      N3896   1.440       .  S
N3894      H3897   1.045       .  S
N3894      H3898   1.046       .  S
N3896      H3899   1.046       .  S
N3896      H3900   1.043       .  S
C3905      C3906   1.420       .  A
C3905      C3910   1.409       .  A
C3906      C3907   1.400       .  A
C3906      N3911   1.438       .  S
C3907      C3908   1.397       .  A
C3907      H3912   1.084       .  S
C3908      C3913   1.474       .  S
C3908      C3909   1.407       .  A
C3909      C3910   1.404       .  A
C3909      N3914   1.438       .  S
C3910      H3915   1.083       .  S
N3911      H3931   1.046       .  S
N3911      H3932   1.046       .  S
C3913      C3916   1.397       .  A
C3913      C3920   1.412       .  A
N3914      H3929   1.046       .  S
N3914      H3930   1.046       .  S
C3916      C3917   1.397       .  A
C3916      H3921   1.084       .  S
C3917      C3918   1.412       .  A
C3917      N3922   1.439       .  S
C3918      C3919   1.401       .  A
C3919      C3920   1.407       .  A
C3919      H3923   1.084       .  S
C3920      N3924   1.437       .  S
N3922      H3925   1.046       .  S
N3922      H3926   1.045       .  S
N3924      H3927   1.046       .  S
N3924      H3928   1.046       .  S
C3933      C3934   1.419       .  A
C3933      C3938   1.409       .  A
C3934      C3935   1.404       .  A
C3934      N3939   1.438       .  S
C3935      C3936   1.398       .  A
C3935      H3940   1.084       .  S
C3936      C3941   1.475       .  S
C3936      C3937   1.406       .  A
C3937      C3938   1.406       .  A
C3937      N3942   1.438       .  S
C3938      H3943   1.083       .  S
N3939      H3959   1.046       .  S
N3939      H3960   1.046       .  S
C3941      C3944   1.399       .  A
C3941      C3948   1.407       .  A
N3942      H3957   1.046       .  S
N3942      H3958   1.045       .  S
C3944      C3945   1.406       .  A
C3944      H3949   1.084       .  S
C3945      C3946   1.416       .  A
C3945      N3950   1.438       .  S
C3946      C3947   1.407       .  A
C3947      C3948   1.403       .  A
C3947      H3951   1.083       .  S
C3948      N3952   1.438       .  S
N3950      H3953   1.046       .  S
N3950      H3954   1.046       .  S
N3952      H3955   1.046       .  S
N3952      H3956   1.045       .  S
C3961      C3962   1.412       .  A
C3961      C3966   1.406       .  A
C3962      C3963   1.410       .  A
C3962      N3967   1.436       .  S
C3963      C3964   1.404       .  A
C3963      H3968   1.084       .  S
C3964      C3969   1.487       .  S
C3964      C3965   1.409       .  A
C3965      C3966   1.406       .  A
C3965      N3970   1.437       .  S
C3966      H3971   1.084       .  S
N3967      H3987   1.045       .  S
N3967      H3988   1.046       .  S
C3969      C3972   1.401       .  A
C3969      C3976   1.411       .  A
N3970      H3985   1.046       .  S
N3970      H3986   1.046       .  S
C3972      C3973   1.402       .  A
C3972      H3977   1.084       .  S
C3973      C3974   1.412       .  A
C3973      N3978   1.439       .  S
C3974      C3975   1.406       .  A
C3975      C3976   1.414       .  A
C3975      H3979   1.084       .  S
C3976      N3980   1.436       .  S
N3978      H3981   1.046       .  S
N3978      H3982   1.046       .  S
N3980      H3983   1.046       .  S
N3980      H3984   1.046       .  S
C3989      C3990   1.415       .  A
C3989      C3994   1.408   1_655  A
C3990      C3991   1.406   1_655  A
C3990      N3995   1.438       .  S
C3991      C3992   1.403       .  A
C3991      H3996   1.084       .  S
C3992      C3997   1.487       .  S
C3992      C3993   1.409       .  A
C3993      C3994   1.405       .  A
C3993      N3998   1.438       .  S
C3994      H3999   1.084       .  S
N3995      H4015   1.045       .  S
N3995      H4016   1.046       .  S
C3997      C4000   1.404       .  A
C3997      C4004   1.408       .  A
N3998      H4013   1.046       .  S
N3998      H4014   1.046       .  S
C4000      C4001   1.409       .  A
C4000      H4005   1.084       .  S
C4001      C4002   1.416       .  A
C4001      N4006   1.437       .  S
C4002      C4003   1.410       .  A
C4003      C4004   1.403       .  A
C4003      H4007   1.083       .  S
C4004      N4008   1.439   1_455  S
N4006      H4009   1.046       .  S
N4006      H4010   1.045       .  S
N4008      H4011   1.046       .  S
N4008      H4012   1.046       .  S
C4017      C4018   1.412       .  A
C4017      C4022   1.405       .  A
C4018      C4019   1.399       .  A
C4018      N4023   1.438       .  S
C4019      C4020   1.401       .  A
C4019      H4024   1.084       .  S
C4020      C4025   1.466       .  S
C4020      C4021   1.405       .  A
C4021      C4022   1.394       .  A
C4021      N4026   1.439       .  S
C4022      H4027   1.084       .  S
N4023      H4043   1.045       .  S
N4023      H4044   1.046       .  S
C4025      C4028   1.399       .  A
C4025      C4032   1.407       .  A
N4026      H4041   1.046       .  S
N4026      H4042   1.046       .  S
C4028      C4029   1.393   1_655  A
C4028      H4033   1.084       .  S
C4029      C4030   1.411       .  A
C4029      N4034   1.433       .  S
C4030      C4031   1.405       .  A
C4031      C4032   1.399   1_455  A
C4031      H4035   1.083       .  S
C4032      N4036   1.438       .  S
N4034      H4037   1.046       .  S
N4034      H4038   1.046       .  S
N4036      H4039   1.046       .  S
N4036      H4040   1.046       .  S
C4045      C4046   1.415       .  A
C4045      C4050   1.410       .  A
C4046      C4047   1.406       .  A
C4046      N4051   1.437       .  S
C4047      C4048   1.402       .  A
C4047      H4052   1.084       .  S
C4048      C4053   1.470       .  S
C4048      C4049   1.402       .  A
C4049      C4050   1.394       .  A
C4049      N4054   1.439       .  S
C4050      H4055   1.083       .  S
N4051      H4071   1.044       .  S
N4051      H4072   1.046       .  S
C4053      C4056   1.404       .  A
C4053      C4060   1.404       .  A
N4054      H4069   1.046       .  S
N4054      H4070   1.046       .  S
C4056      C4057   1.404       .  A
C4056      H4061   1.084       .  S
C4057      C4058   1.408       .  A
C4057      N4062   1.438       .  S
C4058      C4059   1.406       .  A
C4059      C4060   1.397       .  A
C4059      H4063   1.084       .  S
C4060      N4064   1.438       .  S
N4062      H4065   1.046       .  S
N4062      H4066   1.046       .  S
N4064      H4067   1.046       .  S
N4064      H4068   1.046       .  S
C4073      C4074   1.418       .  A
C4073      C4078   1.409       .  A
C4074      C4075   1.407       .  A
C4074      N4079   1.438       .  S
C4075      C4076   1.401       .  A
C4075      H4080   1.084       .  S
C4076      C4081   1.482       .  S
C4076      C4077   1.407       .  A
C4077      C4078   1.404       .  A
C4077      N4082   1.438       .  S
C4078      H4083   1.083       .  S
N4079      H4099   1.046       .  S
N4079      H4100   1.046       .  S
C4081      C4084   1.400       .  A
C4081      C4088   1.406       .  A
N4082      H4097   1.046       .  S
N4082      H4098   1.046       .  S
C4084      C4085   1.407       .  A
C4084      H4089   1.084       .  S
C4085      C4086   1.422       .  A
C4085      N4090   1.438       .  S
C4086      C4087   1.410       .  A
C4087      C4088   1.404       .  A
C4087      H4091   1.083       .  S
C4088      N4092   1.438       .  S
N4090      H4093   1.046       .  S
N4090      H4094   1.046       .  S
N4092      H4095   1.046       .  S
N4092      H4096   1.046       .  S
C4101      C4102   1.415       .  A
C4101      C4106   1.409       .  A
C4102      C4103   1.396       .  A
C4102      N4107   1.433       .  S
C4103      C4104   1.397       .  A
C4103      H4108   1.085       .  S
C4104      C4109   1.479       .  S
C4104      C4105   1.408       .  A
C4105      C4106   1.413       .  A
C4105      N4110   1.436       .  S
C4106      H4111   1.083       .  S
N4107      H4127   1.046       .  S
N4107      H4128   1.046       .  S
C4109      C4112   1.403       .  A
C4109      C4116   1.406       .  A
N4110      H4125   1.046       .  S
N4110      H4126   1.046       .  S
C4112      C4113   1.409       .  A
C4112      H4117   1.084       .  S
C4113      C4114   1.413       .  A
C4113      N4118   1.437       .  S
C4114      C4115   1.406       .  A
C4115      C4116   1.403       .  A
C4115      H4119   1.084       .  S
C4116      N4120   1.438       .  S
N4118      H4121   1.046       .  S
N4118      H4122   1.046       .  S
N4120      H4123   1.046       .  S
N4120      H4124   1.046       .  S
C4129      C4130   1.412       .  A
C4129      C4134   1.406       .  A
C4130      C4131   1.408       .  A
C4130      N4135   1.438       .  S
C4131      C4132   1.406       .  A
C4131      H4136   1.084       .  S
C4132      C4137   1.488       .  S
C4132      C4133   1.410       .  A
C4133      C4134   1.403       .  A
C4133      N4138   1.438   1_455  S
C4134      H4139   1.084       .  S
N4135      H4155   1.046       .  S
N4135      H4156   1.046       .  S
C4137      C4140   1.404       .  A
C4137      C4144   1.408       .  A
N4138      H4153   1.046       .  S
N4138      H4154   1.046       .  S
C4140      C4141   1.409   1_455  A
C4140      H4145   1.084       .  S
C4141      C4142   1.417       .  A
C4141      N4146   1.437       .  S
C4142      C4143   1.410   1_655  A
C4143      C4144   1.403       .  A
C4143      H4147   1.083       .  S
C4144      N4148   1.439       .  S
N4146      H4149   1.046       .  S
N4146      H4150   1.045       .  S
N4148      H4151   1.046       .  S
N4148      H4152   1.046       .  S
C4157      C4158   1.412       .  A
C4157      C4162   1.407       .  A
C4158      C4159   1.403       .  A
C4158      N4163   1.438       .  S
C4159      C4160   1.402       .  A
C4159      H4164   1.084       .  S
C4160      C4165   1.474       .  S
C4160      C4161   1.406       .  A
C4161      C4162   1.400       .  A
C4161      N4166   1.438       .  S
C4162      H4167   1.084       .  S
N4163      H4183   1.046       .  S
N4163      H4184   1.046       .  S
C4165      C4168   1.400   1_655  A
C4165      C4172   1.409   1_655  A
N4166      H4181   1.046       .  S
N4166      H4182   1.046   1_655  S
C4168      C4169   1.397       .  A
C4168      H4173   1.084   1_455  S
C4169      C4170   1.410       .  A
C4169      N4174   1.432       .  S
C4170      C4171   1.405       .  A
C4171      C4172   1.404       .  A
C4171      H4175   1.084       .  S
C4172      N4176   1.438   1_455  S
N4174      H4177   1.046       .  S
N4174      H4178   1.046       .  S
N4176      H4179   1.046   1_655  S
N4176      H4180   1.046       .  S
C4185      C4186   1.413       .  A
C4185      C4190   1.404       .  A
C4186      C4187   1.400       .  A
C4186      N4191   1.438       .  S
C4187      C4188   1.400       .  A
C4187      H4192   1.084       .  S
C4188      C4193   1.477       .  S
C4188      C4189   1.410       .  A
C4189      C4190   1.402       .  A
C4189      N4194   1.438       .  S
C4190      H4195   1.084       .  S
N4191      H4211   1.046       .  S
N4191      H4212   1.046       .  S
C4193      C4196   1.400       .  A
C4193      C4200   1.408       .  A
N4194      H4209   1.046       .  S
N4194      H4210   1.045       .  S
C4196      C4197   1.402       .  A
C4196      H4201   1.084       .  S
C4197      C4198   1.418       .  A
C4197      N4202   1.437       .  S
C4198      C4199   1.409       .  A
C4199      C4200   1.401       .  A
C4199      H4203   1.083       .  S
C4200      N4204   1.439       .  S
N4202      H4205   1.046       .  S
N4202      H4206   1.045       .  S
N4204      H4207   1.046       .  S
N4204      H4208   1.045       .  S
C4213      C4214   1.417       .  A
C4213      C4218   1.408       .  A
C4214      C4215   1.412       .  A
C4214      N4219   1.437       .  S
C4215      C4216   1.403       .  A
C4215      H4220   1.084       .  S
C4216      C4221   1.486       .  S
C4216      C4217   1.408       .  A
C4217      C4218   1.405       .  A
C4217      N4222   1.438       .  S
C4218      H4223   1.083       .  S
N4219      H4239   1.046       .  S
N4219      H4240   1.046       .  S
C4221      C4224   1.399       .  A
C4221      C4228   1.409       .  A
N4222      H4237   1.046       .  S
N4222      H4238   1.045       .  S
C4224      C4225   1.407       .  A
C4224      H4229   1.084       .  S
C4225      C4226   1.420       .  A
C4225      N4230   1.438       .  S
C4226      C4227   1.409       .  A
C4227      C4228   1.411       .  A
C4227      H4231   1.083       .  S
C4228      N4232   1.438       .  S
N4230      H4233   1.046       .  S
N4230      H4234   1.046       .  S
N4232      H4235   1.046       .  S
N4232      H4236   1.045       .  S
C4241      C4242   1.415       .  A
C4241      C4246   1.410       .  A
C4242      C4243   1.410       .  A
C4242      N4247   1.437       .  S
C4243      C4244   1.404       .  A
C4243      H4248   1.084       .  S
C4244      C4249   1.483       .  S
C4244      C4245   1.407       .  A
C4245      C4246   1.402       .  A
C4245      N4250   1.439       .  S
C4246      H4251   1.084       .  S
N4247      H4267   1.046   1_554  S
N4247      H4268   1.046   1_554  S
C4249      C4252   1.403       .  A
C4249      C4256   1.408       .  A
N4250      H4265   1.046       .  S
N4250      H4266   1.046       .  S
C4252      C4253   1.411       .  A
C4252      H4257   1.084       .  S
C4253      C4254   1.418       .  A
C4253      N4258   1.437       .  S
C4254      C4255   1.408       .  A
C4255      C4256   1.401       .  A
C4255      H4259   1.083       .  S
C4256      N4260   1.439       .  S
N4258      H4261   1.046   1_554  S
N4258      H4262   1.046   1_554  S
N4260      H4263   1.046       .  S
N4260      H4264   1.046       .  S
C4269      C4270   1.416       .  A
C4269      C4274   1.409       .  A
C4270      C4271   1.408       .  A
C4270      N4275   1.438       .  S
C4271      C4272   1.403       .  A
C4271      H4276   1.084       .  S
C4272      C4277   1.485       .  S
C4272      C4273   1.407       .  A
C4273      C4274   1.405       .  A
C4273      N4278   1.438       .  S
C4274      H4279   1.084       .  S
N4275      H4295   1.045       .  S
N4275      H4296   1.046       .  S
C4277      C4280   1.405       .  A
C4277      C4284   1.407       .  A
N4278      H4293   1.046       .  S
N4278      H4294   1.046       .  S
C4280      C4281   1.409       .  A
C4280      H4285   1.084       .  S
C4281      C4282   1.415       .  A
C4281      N4286   1.437       .  S
C4282      C4283   1.408       .  A
C4283      C4284   1.402       .  A
C4283      H4287   1.084       .  S
C4284      N4288   1.438       .  S
N4286      H4289   1.046       .  S
N4286      H4290   1.046       .  S
N4288      H4291   1.046       .  S
N4288      H4292   1.045       .  S
C4297      C4298   1.412       .  A
C4297      C4302   1.403       .  A
C4298      C4299   1.396       .  A
C4298      N4303   1.433       .  S
C4299      C4300   1.396       .  A
C4299      H4304   1.084       .  S
C4300      C4305   1.468       .  S
C4300      C4301   1.410       .  A
C4301      C4302   1.405       .  A
C4301      N4306   1.438       .  S
C4302      H4307   1.084       .  S
N4303      H4323   1.046       .  S
N4303      H4324   1.046       .  S
C4305      C4308   1.398       .  A
C4305      C4312   1.407       .  A
N4306      H4321   1.046       .  S
N4306      H4322   1.044       .  S
C4308      C4309   1.400       .  A
C4308      H4313   1.084       .  S
C4309      C4310   1.413       .  A
C4309      N4314   1.438       .  S
C4310      C4311   1.405       .  A
C4311      C4312   1.403       .  A
C4311      H4315   1.084       .  S
C4312      N4316   1.438       .  S
N4314      H4317   1.046       .  S
N4314      H4318   1.046       .  S
N4316      H4319   1.046       .  S
N4316      H4320   1.044       .  S
C4325      C4326   1.412       .  A
C4325      C4330   1.403       .  A
C4326      C4327   1.404       .  A
C4326      N4331   1.438       .  S
C4327      C4328   1.401       .  A
C4327      H4332   1.084       .  S
C4328      C4333   1.462       .  S
C4328      C4329   1.403       .  A
C4329      C4330   1.392       .  A
C4329      N4334   1.439       .  S
C4330      H4335   1.084       .  S
N4331      H4351   1.045       .  S
N4331      H4352   1.046       .  S
C4333      C4336   1.398       .  A
C4333      C4340   1.405       .  A
N4334      H4349   1.046       .  S
N4334      H4350   1.046       .  S
C4336      C4337   1.396       .  A
C4336      H4341   1.084       .  S
C4337      C4338   1.413       .  A
C4337      N4342   1.438       .  S
C4338      C4339   1.405       .  A
C4339      C4340   1.400       .  A
C4339      H4343   1.084       .  S
C4340      N4344   1.438       .  S
N4342      H4345   1.046       .  S
N4342      H4346   1.046       .  S
N4344      H4347   1.046       .  S
N4344      H4348   1.046       .  S
C4353      C4354   1.416       .  A
C4353      C4358   1.405       .  A
C4354      C4355   1.405       .  A
C4354      N4359   1.438       .  S
C4355      C4356   1.401       .  A
C4355      H4360   1.084       .  S
C4356      C4361   1.492       .  S
C4356      C4357   1.414       .  A
C4357      C4358   1.411       .  A
C4357      N4362   1.437       .  S
C4358      H4363   1.084       .  S
N4359      H4379   1.046       .  S
N4359      H4380   1.046       .  S
C4361      C4364   1.398       .  A
C4361      C4368   1.415       .  A
N4362      H4377   1.046       .  S
N4362      H4378   1.045       .  S
C4364      C4365   1.397       .  A
C4364      H4369   1.084       .  S
C4365      C4366   1.417       .  A
C4365      N4370   1.433       .  S
C4366      C4367   1.407       .  A
C4367      C4368   1.415       .  A
C4367      H4371   1.083       .  S
C4368      N4372   1.437       .  S
N4370      H4373   1.046       .  S
N4370      H4374   1.045       .  S
N4372      H4375   1.046       .  S
N4372      H4376   1.046       .  S
C4381      C4382   1.413       .  A
C4381      C4386   1.406       .  A
C4382      C4383   1.409       .  A
C4382      N4387   1.438       .  S
C4383      C4384   1.403       .  A
C4383      H4388   1.084       .  S
C4384      C4389   1.478       .  S
C4384      C4385   1.406       .  A
C4385      C4386   1.403       .  A
C4385      N4390   1.438       .  S
C4386      H4391   1.084       .  S
N4387      H4407   1.046       .  S
N4387      H4408   1.046       .  S
C4389      C4392   1.399   1_554  A
C4389      C4396   1.409   1_554  A
N4390      H4405   1.046       .  S
N4390      H4406   1.045       .  S
C4392      C4393   1.404       .  A
C4392      H4397   1.084   1_556  S
C4393      C4394   1.413       .  A
C4393      N4398   1.438       .  S
C4394      C4395   1.405       .  A
C4395      C4396   1.407       .  A
C4395      H4399   1.084       .  S
C4396      N4400   1.438   1_556  S
N4398      H4401   1.046       .  S
N4398      H4402   1.046       .  S
N4400      H4403   1.046   1_554  S
N4400      H4404   1.045       .  S
C4409      C4410   1.413       .  A
C4409      C4414   1.403       .  A
C4410      C4411   1.404       .  A
C4410      N4415   1.438       .  S
C4411      C4412   1.403       .  A
C4411      H4416   1.084       .  S
C4412      C4417   1.469       .  S
C4412      C4413   1.405       .  A
C4413      C4414   1.395       .  A
C4413      N4418   1.438       .  S
C4414      H4419   1.084       .  S
N4415      H4435   1.046       .  S
N4415      H4436   1.046       .  S
C4417      C4420   1.400       .  A
C4417      C4424   1.406       .  A
N4418      H4433   1.046       .  S
N4418      H4434   1.046       .  S
C4420      C4421   1.398       .  A
C4420      H4425   1.084       .  S
C4421      C4422   1.411       .  A
C4421      N4426   1.438       .  S
C4422      C4423   1.404       .  A
C4423      C4424   1.402       .  A
C4423      H4427   1.084       .  S
C4424      N4428   1.437       .  S
N4426      H4429   1.046       .  S
N4426      H4430   1.046       .  S
N4428      H4431   1.046       .  S
N4428      H4432   1.046       .  S
C4437      C4438   1.409       .  A
C4437      C4442   1.399       .  A
C4438      C4439   1.400       .  A
C4438      N4443   1.439       .  S
C4439      C4440   1.404       .  A
C4439      H4444   1.083       .  S
C4440      C4445   1.483       .  S
C4440      C4441   1.414       .  A
C4441      C4442   1.403       .  A
C4441      N4446   1.438       .  S
C4442      H4447   1.084       .  S
N4443      H4463   1.045       .  S
N4443      H4464   1.046       .  S
C4445      C4448   1.405       .  A
C4445      C4452   1.412       .  A
N4446      H4461   1.046       .  S
N4446      H4462   1.045       .  S
C4448      C4449   1.403       .  A
C4448      H4453   1.083       .  S
C4449      C4450   1.408       .  A
C4449      N4454   1.438       .  S
C4450      C4451   1.401       .  A
C4451      C4452   1.401       .  A
C4451      H4455   1.084       .  S
C4452      N4456   1.438       .  S
N4454      H4457   1.046       .  S
N4454      H4458   1.045       .  S
N4456      H4459   1.046       .  S
N4456      H4460   1.046       .  S
C4465      C4466   1.418       .  A
C4465      C4470   1.411       .  A
C4466      C4467   1.401       .  A
C4466      N4471   1.431       .  S
C4467      C4468   1.398       .  A
C4467      H4472   1.084       .  S
C4468      C4473   1.487       .  S
C4468      C4469   1.410       .  A
C4469      C4470   1.413       .  A
C4469      N4474   1.437       .  S
C4470      H4475   1.083       .  S
N4471      H4491   1.046       .  S
N4471      H4492   1.046       .  S
C4473      C4476   1.401       .  A
C4473      C4480   1.410       .  A
N4474      H4489   1.046       .  S
N4474      H4490   1.046       .  S
C4476      C4477   1.405       .  A
C4476      H4481   1.084       .  S
C4477      C4478   1.416       .  A
C4477      N4482   1.432       .  S
C4478      C4479   1.407       .  A
C4479      C4480   1.408       .  A
C4479      H4483   1.083       .  S
C4480      N4484   1.437       .  S
N4482      H4485   1.046       .  S
N4482      H4486   1.045       .  S
N4484      H4487   1.046       .  S
N4484      H4488   1.046       .  S
C4493      C4494   1.414       .  A
C4493      C4498   1.405       .  A
C4494      C4495   1.412       .  A
C4494      N4499   1.437       .  S
C4495      C4496   1.408       .  A
C4495      H4500   1.083       .  S
C4496      C4501   1.494       .  S
C4496      C4497   1.412       .  A
C4497      C4498   1.402       .  A
C4497      N4502   1.439       .  S
C4498      H4503   1.084       .  S
N4499      H4519   1.046       .  S
N4499      H4520   1.046       .  S
C4501      C4504   1.406       .  A
C4501      C4508   1.411       .  A
N4502      H4517   1.046       .  S
N4502      H4518   1.046       .  S
C4504      C4505   1.410       .  A
C4504      H4509   1.083       .  S
C4505      C4506   1.416       .  A
C4505      N4510   1.437       .  S
C4506      C4507   1.410       .  A
C4507      C4508   1.405       .  A
C4507      H4511   1.083       .  S
C4508      N4512   1.439       .  S
N4510      H4513   1.046       .  S
N4510      H4514   1.045       .  S
N4512      H4515   1.046       .  S
N4512      H4516   1.046       .  S
C4521      C4522   1.419       .  A
C4521      C4526   1.406       .  A
C4522      C4523   1.399       .  A
C4522      N4527   1.438       .  S
C4523      C4524   1.396       .  A
C4523      H4528   1.084       .  S
C4524      C4529   1.474       .  S
C4524      C4525   1.409       .  A
C4525      C4526   1.406       .  A
C4525      N4530   1.438       .  S
C4526      H4531   1.083       .  S
N4527      H4547   1.046       .  S
N4527      H4548   1.046       .  S
C4529      C4532   1.396       .  A
C4529      C4536   1.411       .  A
N4530      H4545   1.046       .  S
N4530      H4546   1.046       .  S
C4532      C4533   1.397       .  A
C4532      H4537   1.084       .  S
C4533      C4534   1.415       .  A
C4533      N4538   1.433       .  S
C4534      C4535   1.403       .  A
C4535      C4536   1.406       .  A
C4535      H4539   1.083       .  S
C4536      N4540   1.437       .  S
N4538      H4541   1.046       .  S
N4538      H4542   1.046       .  S
N4540      H4543   1.046       .  S
N4540      H4544   1.046       .  S
C4549      C4550   1.410       .  A
C4549      C4554   1.404       .  A
C4550      C4551   1.395       .  A
C4550      N4555   1.433       .  S
C4551      C4552   1.399       .  A
C4551      H4556   1.084       .  S
C4552      C4557   1.466       .  S
C4552      C4553   1.407       .  A
C4553      C4554   1.403       .  A
C4553      N4558   1.437       .  S
C4554      H4559   1.084       .  S
N4555      H4575   1.046       .  S
N4555      H4576   1.046       .  S
C4557      C4560   1.402       .  A
C4557      C4564   1.405       .  A
N4558      H4573   1.046       .  S
N4558      H4574   1.046       .  S
C4560      C4561   1.403       .  A
C4560      H4565   1.084       .  S
C4561      C4562   1.410       .  A
C4561      N4566   1.438       .  S
C4562      C4563   1.402       .  A
C4563      C4564   1.396       .  A
C4563      H4567   1.084       .  S
C4564      N4568   1.438       .  S
N4566      H4569   1.046       .  S
N4566      H4570   1.046       .  S
N4568      H4571   1.046       .  S
N4568      H4572   1.046       .  S
C4577      C4578   1.411       .  A
C4577      C4582   1.399       .  A
C4578      C4579   1.398       .  A
C4578      N4583   1.439       .  S
C4579      C4580   1.398       .  A
C4579      H4584   1.084       .  S
C4580      C4585   1.468       .  S
C4580      C4581   1.409       .  A
C4581      C4582   1.403       .  A
C4581      N4586   1.437       .  S
C4582      H4587   1.084       .  S
N4583      H4603   1.046       .  S
N4583      H4604   1.046       .  S
C4585      C4588   1.398       .  A
C4585      C4592   1.405       .  A
N4586      H4601   1.046       .  S
N4586      H4602   1.046       .  S
C4588      C4589   1.400       .  A
C4588      H4593   1.084       .  S
C4589      C4590   1.417       .  A
C4589      N4594   1.438       .  S
C4590      C4591   1.407       .  A
C4591      C4592   1.401       .  A
C4591      H4595   1.083       .  S
C4592      N4596   1.438       .  S
N4594      H4597   1.046       .  S
N4594      H4598   1.046       .  S
N4596      H4599   1.046       .  S
N4596      H4600   1.046       .  S
C4605      C4606   1.419       .  A
C4605      C4610   1.409       .  A
C4606      C4607   1.404       .  A
C4606      N4611   1.438       .  S
C4607      C4608   1.399       .  A
C4607      H4612   1.084       .  S
C4608      C4613   1.481       .  S
C4608      C4609   1.407       .  A
C4609      C4610   1.406       .  A
C4609      N4614   1.438       .  S
C4610      H4615   1.083       .  S
N4611      H4631   1.046       .  S
N4611      H4632   1.046       .  S
C4613      C4616   1.401       .  A
C4613      C4620   1.407       .  A
N4614      H4629   1.046       .  S
N4614      H4630   1.046       .  S
C4616      C4617   1.408       .  A
C4616      H4621   1.084       .  S
C4617      C4618   1.419       .  A
C4617      N4622   1.438       .  S
C4618      C4619   1.406       .  A
C4619      C4620   1.403       .  A
C4619      H4623   1.083       .  S
C4620      N4624   1.438       .  S
N4622      H4625   1.046       .  S
N4622      H4626   1.045       .  S
N4624      H4627   1.046       .  S
N4624      H4628   1.046       .  S
C4633      C4634   1.416       .  A
C4633      C4638   1.411       .  A
C4634      C4635   1.413       .  A
C4634      N4639   1.436       .  S
C4635      C4636   1.405       .  A
C4635      H4640   1.083       .  S
C4636      C4641   1.489       .  S
C4636      C4637   1.407       .  A
C4637      C4638   1.402       .  A
C4637      N4642   1.439       .  S
C4638      H4643   1.083       .  S
N4639      H4659   1.046       .  S
N4639      H4660   1.046       .  S
C4641      C4644   1.404       .  A
C4641      C4648   1.408       .  A
N4642      H4657   1.046       .  S
N4642      H4658   1.046       .  S
C4644      C4645   1.412       .  A
C4644      H4649   1.084       .  S
C4645      C4646   1.416       .  A
C4645      N4650   1.436       .  S
C4646      C4647   1.409       .  A
C4647      C4648   1.405       .  A
C4647      H4651   1.084       .  S
C4648      N4652   1.438       .  S
N4650      H4653   1.046       .  S
N4650      H4654   1.045       .  S
N4652      H4655   1.046       .  S
N4652      H4656   1.046       .  S
C4661      C4662   1.412       .  A
C4661      C4666   1.405       .  A
C4662      C4663   1.410       .  A
C4662      N4667   1.437       .  S
C4663      C4664   1.404       .  A
C4663      H4668   1.084       .  S
C4664      C4669   1.477       .  S
C4664      C4665   1.406       .  A
C4665      C4666   1.401       .  A
C4665      N4670   1.439       .  S
C4666      H4671   1.084       .  S
N4667      H4687   1.046       .  S
N4667      H4688   1.046       .  S
C4669      C4672   1.398       .  A
C4669      C4676   1.410       .  A
N4670      H4685   1.046       .  S
N4670      H4686   1.044       .  S
C4672      C4673   1.403       .  A
C4672      H4677   1.084       .  S
C4673      C4674   1.416       .  A
C4673      N4678   1.438       .  S
C4674      C4675   1.405       .  A
C4675      C4676   1.407       .  A
C4675      H4679   1.084       .  S
C4676      N4680   1.438       .  S
N4678      H4681   1.046       .  S
N4678      H4682   1.046       .  S
N4680      H4683   1.046       .  S
N4680      H4684   1.044       .  S
C4689      C4690   1.413       .  A
C4689      C4694   1.405       .  A
C4690      C4691   1.399       .  A
C4690      N4695   1.438       .  S
C4691      C4692   1.399       .  A
C4691      H4696   1.084       .  S
C4692      C4697   1.469       .  S
C4692      C4693   1.407       .  A
C4693      C4694   1.401       .  A
C4693      N4698   1.438       .  S
C4694      H4699   1.084       .  S
N4695      H4715   1.046       .  S
N4695      H4716   1.046       .  S
C4697      C4700   1.400       .  A
C4697      C4704   1.406       .  A
N4698      H4713   1.046       .  S
N4698      H4714   1.046       .  S
C4700      C4701   1.404       .  A
C4700      H4705   1.084       .  S
C4701      C4702   1.413       .  A
C4701      N4706   1.437       .  S
C4702      C4703   1.404       .  A
C4703      C4704   1.397       .  A
C4703      H4707   1.084       .  S
C4704      N4708   1.438       .  S
N4706      H4709   1.046       .  S
N4706      H4710   1.046       .  S
N4708      H4711   1.046       .  S
N4708      H4712   1.046       .  S
C4717      C4718   1.410       .  A
C4717      C4722   1.399       .  A
C4718      C4719   1.396       .  A
C4718      N4723   1.439       .  S
C4719      C4720   1.396       .  A
C4719      H4724   1.084       .  S
C4720      C4725   1.464       .  S
C4720      C4721   1.409       .  A
C4721      C4722   1.404       .  A
C4721      N4726   1.437       .  S
C4722      H4727   1.084       .  S
N4723      H4743   1.046       .  S
N4723      H4744   1.046       .  S
C4725      C4728   1.397       .  A
C4725      C4732   1.404       .  A
N4726      H4741   1.046       .  S
N4726      H4742   1.045       .  S
C4728      C4729   1.401       .  A
C4728      H4733   1.084       .  S
C4729      C4730   1.415       .  A
C4729      N4734   1.438       .  S
C4730      C4731   1.406       .  A
C4731      C4732   1.400       .  A
C4731      H4735   1.083       .  S
C4732      N4736   1.438       .  S
N4734      H4737   1.046       .  S
N4734      H4738   1.046       .  S
N4736      H4739   1.046       .  S
N4736      H4740   1.046       .  S
C4745      C4746   1.422       .  A
C4745      C4750   1.412       .  A
C4746      C4747   1.408       .  A
C4746      N4751   1.438       .  S
C4747      C4748   1.399       .  A
C4747      H4752   1.084       .  S
C4748      C4753   1.487       .  S
C4748      C4749   1.407       .  A
C4749      C4750   1.409       .  A
C4749      N4754   1.438       .  S
C4750      H4755   1.083       .  S
N4751      H4771   1.046       .  S
N4751      H4772   1.046       .  S
C4753      C4756   1.400       .  A
C4753      C4760   1.407       .  A
N4754      H4769   1.046       .  S
N4754      H4770   1.046       .  S
C4756      C4757   1.409       .  A
C4756      H4761   1.084       .  S
C4757      C4758   1.422       .  A
C4757      N4762   1.438       .  S
C4758      C4759   1.412       .  A
C4759      C4760   1.408       .  A
C4759      H4763   1.083       .  S
C4760      N4764   1.438       .  S
N4762      H4765   1.046       .  S
N4762      H4766   1.046       .  S
N4764      H4767   1.045       .  S
N4764      H4768   1.046       .  S
C4773      C4774   1.418       .  A
C4773      C4778   1.410       .  A
C4774      C4775   1.407       .  A
C4774      N4779   1.437       .  S
C4775      C4776   1.403       .  A
C4775      H4780   1.084       .  S
C4776      C4781   1.493       .  S
C4776      C4777   1.410       .  A
C4777      C4778   1.409       .  A
C4777      N4782   1.437       .  S
C4778      H4783   1.083       .  S
N4779      H4799   1.046       .  S
N4779      H4800   1.046       .  S
C4781      C4784   1.403       .  A
C4781      C4788   1.410       .  A
N4782      H4797   1.046       .  S
N4782      H4798   1.046       .  S
C4784      C4785   1.408       .  A
C4784      H4789   1.083       .  S
C4785      C4786   1.418       .  A
C4785      N4790   1.438       .  S
C4786      C4787   1.409       .  A
C4787      C4788   1.410       .  A
C4787      H4791   1.083       .  S
C4788      N4792   1.437       .  S
N4790      H4793   1.046       .  S
N4790      H4794   1.046       .  S
N4792      H4795   1.045       .  S
N4792      H4796   1.046       .  S
