geometry optimzed in LAMMPS
_audit_creation_date              2020-12-01 
_audit_creation_method            'lammps2cif' 
_symmetry_space_group_name_H-M    'P1' 
_symmetry_Int_Tables_number       1 
_symmetry_cell_setting            triclinic 
loop_ 
_symmetry_equiv_pos_as_xyz 
  x,y,z 
_cell_length_a                    32.08936637 
_cell_length_b                    27.396324279144682 
_cell_length_c                    65.3253622346616 
_cell_angle_alpha                 90.233148792234 
_cell_angle_beta                  89.85177291839972 
_cell_angle_gamma                 89.85354606606926 
loop_ 
_atom_site_label 
_atom_site_type_symbol 
_atom_site_fract_x 
_atom_site_fract_y 
_atom_site_fract_z 
_atom_site_charge 
O1          O  0.95235758  0.21036866  0.41522017    -0.85900
O2          O  0.92198838  0.27171094  0.44440607    -0.82900
C3          C  0.91141636  0.29000842  0.46124831     0.97600
O4          O  0.92145060  0.26957142  0.47788867    -0.83000
O5          O  0.88411298  0.17808518  0.47859947    -0.85600
C6          C  0.87783535  0.13356531  0.47460827     1.02100
O7          O  0.90444391  0.10994931  0.46425319    -0.78400
O8          O  0.91105222  0.15327749  0.42663083    -0.78600
C9          C  0.92040434  0.18367106  0.41301512     1.02100
O10         O  0.02956061  0.20559650  0.43849349    -0.85900
O11         O  0.00057199  0.27685417  0.46486302    -0.82900
C12         C  0.01165111  0.26493008  0.48277864     0.97600
O13         O  0.99789263  0.22590238  0.49040404    -0.83000
O14         O  0.95914621  0.13567613  0.49319095    -0.85600
C15         C  0.98139752  0.10276986  0.48501449     1.02100
O16         O  0.99254739  0.10649022  0.46661585    -0.78400
O17         O  0.00096602  0.13855422  0.42727796    -0.78500
C18         C  0.03321805  0.16424889  0.43017366     1.02000
Cr19       Cr  0.97501432  0.23772051  0.44178767     1.93700
Cr20       Cr  0.94184002  0.20157239  0.48309186     1.93200
Cr21       Cr  0.95246933  0.13132489  0.44678476     1.39100
O22         O  0.95644316  0.19021806  0.45735348    -1.23600
O23         O  0.78359289  0.20881779  0.33862196    -0.85900
O24         O  0.81722559  0.26691346  0.30889556    -0.82900
C25         C  0.82974636  0.28156443  0.29171324     0.97600
O26         O  0.82009421  0.25915520  0.27540928    -0.83000
O27         O  0.85313560  0.16493304  0.27611408    -0.85600
C28         C  0.85698155  0.12015261  0.28029652     1.02100
O29         O  0.82993332  0.10000670  0.29150854    -0.78400
O30         O  0.82352069  0.14855317  0.32845178    -0.78600
C31         C  0.81462234  0.18090948  0.34146345     1.02100
O32         O  0.70749936  0.20544968  0.31431112    -0.85900
O33         O  0.74000470  0.27282083  0.28772565    -0.82900
C34         C  0.72885434  0.25928389  0.27003227     0.97600
O35         O  0.74195110  0.21915253  0.26295513    -0.83000
O36         O  0.77675712  0.12638820  0.26175447    -0.85600
C37         C  0.75327067  0.09512589  0.27012351     1.02100
O38         O  0.74204093  0.10007717  0.28846961    -0.78400
O39         O  0.73300318  0.13834260  0.32696597    -0.78500
C40         C  0.70174878  0.16512356  0.32295896     1.02000
Cr41       Cr  0.76321892  0.23465723  0.31142735     1.93700
Cr42       Cr  0.79671025  0.19203956  0.27101136     1.93200
Cr43       Cr  0.78217851  0.12618219  0.30823992     1.39100
O44         O  0.78085838  0.18432981  0.29675500    -1.23600
O45         O  0.45587761  0.79463809  0.06571751    -0.85900
O46         O  0.48550067  0.72829492  0.03773602    -0.82900
C47         C  0.47333167  0.74226546  0.02029570     0.97600
O48         O  0.48575893  0.78295767  0.01351746    -0.83000
O49         O  0.52346251  0.87636389  0.01332772    -0.85600
C50         C  0.50100065  0.90725960  0.02285907     1.02100
O51         O  0.49076208  0.90028391  0.04114196    -0.78400
O52         O  0.48304195  0.86053242  0.07883811    -0.78600
C53         C  0.45118958  0.83486752  0.07474167     1.02100
O54         O  0.53317349  0.78767127  0.08889253    -0.85900
O55         O  0.56409342  0.73106470  0.05767912    -0.82900
C56         C  0.57443209  0.71617255  0.04012557     0.97600
O57         O  0.56369585  0.73954620  0.02425808    -0.83000
O58         O  0.59933851  0.83179138  0.02598919    -0.85600
C59         C  0.60555945  0.87565451  0.03109153     1.02100
O60         O  0.57941907  0.89701539  0.04260336    -0.78400
O61         O  0.57368398  0.84693113  0.07885467    -0.78500
C62         C  0.56488169  0.81442311  0.09165617     1.02000
Cr63       Cr  0.51075698  0.76419238  0.06160692     1.93700
Cr64       Cr  0.54183929  0.80816211  0.02119648     1.93200
Cr65       Cr  0.53165917  0.87192081  0.05966463     1.39100
O66         O  0.52810849  0.81475219  0.04733674    -1.23600
O67         O  0.78347888  0.80078171  0.18715137    -0.85900
O68         O  0.75632385  0.73187823  0.21485051    -0.82900
C69         C  0.76704370  0.74728406  0.23238707     0.97600
O70         O  0.75195353  0.78634579  0.23931098    -0.83000
O71         O  0.71252079  0.87524586  0.24063217    -0.85600
C72         C  0.73499380  0.90734963  0.23214133     1.02100
O73         O  0.74530545  0.90331095  0.21361451    -0.78400
O74         O  0.75380604  0.86592278  0.17476331    -0.78600
C75         C  0.78647798  0.84098400  0.17797002     1.02100
O76         O  0.70616504  0.79097118  0.16427738    -0.85900
O77         O  0.67801450  0.73072679  0.19437046    -0.82900
C78         C  0.66521956  0.71672111  0.21156733     0.97600
O79         O  0.67578075  0.73889194  0.22781999    -0.83000
O80         O  0.63783577  0.83018910  0.22686747    -0.85600
C81         C  0.63156391  0.87466526  0.22311301     1.02100
O82         O  0.65722747  0.89723431  0.21184192    -0.78400
O83         O  0.66405811  0.84885907  0.17485226    -0.78500
C84         C  0.67359270  0.81666844  0.16186328     1.02000
Cr85       Cr  0.72983081  0.76728935  0.19114796     1.93700
Cr86       Cr  0.69570869  0.80804747  0.23170482     1.93200
Cr87       Cr  0.70532120  0.87442005  0.19437770     1.39100
O88         O  0.71023135  0.81651189  0.20585043    -1.23600
O89         O  0.28299218  0.20568617  0.84055380    -0.85900
O90         O  0.31153972  0.26542623  0.81057343    -0.82900
C91         C  0.32262787  0.28192474  0.79353436     0.97600
O92         O  0.31404668  0.25884339  0.77722152    -0.83000
O93         O  0.35246872  0.16699553  0.77814032    -0.85600
C94         C  0.35834304  0.12246501  0.78209673     1.02100
O95         O  0.33211302  0.10013352  0.79307645    -0.78400
O96         O  0.32391570  0.14703733  0.83005426    -0.78600
C97         C  0.31532463  0.17954892  0.84308485     1.02100
O98         O  0.20544904  0.19634730  0.81717952    -0.85900
O99         O  0.23319756  0.26547816  0.78977859    -0.82900
C100        C  0.22317530  0.25116908  0.77194706     0.97600
O101        O  0.23862337  0.21232787  0.76485332    -0.83000
O102        O  0.27836138  0.12264040  0.76351271    -0.85600
C103        C  0.25579392  0.09038210  0.77177956     1.02100
O104        O  0.24449518  0.09465254  0.79015942    -0.78400
O105        O  0.23469445  0.13058278  0.82916504    -0.78500
C106        C  0.20216463  0.15542927  0.82575161     1.02000
Cr107      Cr  0.25947557  0.22952916  0.81352570     1.93700
Cr108      Cr  0.29467636  0.18972124  0.77292905     1.93200
Cr109      Cr  0.28353951  0.12255071  0.80999115     1.39100
O110        O  0.27922997  0.18065800  0.79869487    -1.23600
O111        O  0.43430328  0.22426379  0.92385285    -0.85900
O112        O  0.44761321  0.28093555  0.95787293    -0.82900
C113        C  0.41347368  0.28141136  0.96753313     0.97600
O114        O  0.40139440  0.24388392  0.97701677    -0.83000
O115        O  0.39331020  0.14524942  0.98568275    -0.85600
C116        C  0.37284818  0.12370742  0.97187474     1.02100
O117        O  0.38594497  0.12296932  0.95359234    -0.78400
O118        O  0.43702427  0.14501815  0.92019281    -0.78600
C119        C  0.42511699  0.18618760  0.91393252     1.02100
O120        O  0.51760443  0.18276244  0.92872190    -0.85900
O121        O  0.52598676  0.23596568  0.96471913    -0.82900
C122        C  0.51928315  0.25020410  0.98287793     0.97600
O123        O  0.48499277  0.24084588  0.99149305    -0.83000
O124        O  0.47902262  0.13979023  0.99593743    -0.85600
C125        C  0.47381130  0.09594360  0.99041758     1.02100
O126        O  0.45562632  0.08534646  0.97400361    -0.78400
O127        O  0.50722411  0.11283803  0.94372210    -0.78500
C128        C  0.53030799  0.14054560  0.93348465     1.02000
Cr129      Cr  0.47943924  0.22693833  0.94486476     1.93700
Cr130      Cr  0.44090312  0.19166248  0.98540861     1.93200
Cr131      Cr  0.44718152  0.12170575  0.94855671     1.39100
O132        O  0.45569397  0.18018086  0.95960625    -1.23600
O133        O  0.27879992  0.79657136  0.68660322    -0.85900
O134        O  0.25079152  0.72814125  0.71377716    -0.82900
C135        C  0.26304104  0.74190006  0.73130294     0.97600
O136        O  0.24994046  0.78178222  0.73858545    -0.83000
O137        O  0.21223756  0.87280078  0.74090727    -0.85600
C138        C  0.23501537  0.90439952  0.73227442     1.02100
O139        O  0.24485562  0.89989628  0.71372283    -0.78400
O140        O  0.25121848  0.86362807  0.67487591    -0.78600
C141        C  0.28299667  0.83689746  0.67779688     1.02100
O142        O  0.20115256  0.79177595  0.66398334    -0.85900
O143        O  0.17135275  0.73242654  0.69409068    -0.82900
C144        C  0.16183151  0.71544319  0.71127827     0.97600
O145        O  0.17239688  0.73758138  0.72755784    -0.83000
O146        O  0.13614154  0.83016034  0.72760389    -0.85600
C147        C  0.13037190  0.87473051  0.72365866     1.02100
O148        O  0.15644693  0.89711274  0.71260920    -0.78400
O149        O  0.16117740  0.85083973  0.67528352    -0.78500
C150        C  0.16990258  0.81970058  0.66175356     1.02000
Cr151      Cr  0.22442326  0.76582283  0.69059527     1.93700
Cr152      Cr  0.19371061  0.80611594  0.73175533     1.93200
Cr153      Cr  0.20353195  0.87352823  0.69473599     1.39100
O154        O  0.20716551  0.81514495  0.70580647    -1.23600
O155        O  0.95663193  0.80339428  0.56368464    -0.85900
O156        O  0.98801044  0.73525776  0.53677854    -0.82900
C157        C  0.97620972  0.75031467  0.51938784     0.97600
O158        O  0.99013662  0.78987403  0.51250979    -0.83000
O159        O  0.02705470  0.88023317  0.51128013    -0.85600
C160        C  0.00384474  0.91200180  0.51954533     1.02100
O161        O  0.99208462  0.90692021  0.53778891    -0.78400
O162        O  0.98273189  0.87044634  0.57627148    -0.78600
C163        C  0.95128521  0.84394905  0.57236945     1.02100
O164        O  0.03269626  0.79899399  0.58778538    -0.85900
O165        O  0.06569392  0.74022642  0.55813202    -0.82900
C166        C  0.07861389  0.72597645  0.54095069     0.97600
O167        O  0.06721533  0.74667367  0.52461878    -0.83000
O168        O  0.10225776  0.83860088  0.52597001    -0.85600
C169        C  0.10726332  0.88327974  0.52981187     1.02100
O170        O  0.08037973  0.90546817  0.54066162    -0.78400
O171        O  0.07319792  0.85834722  0.57761955    -0.78500
C172        C  0.06410847  0.82622760  0.59054739     1.02000
Cr173      Cr  0.01186149  0.77302685  0.56068257     1.93700
Cr174      Cr  0.04542720  0.81426087  0.52045328     1.93200
Cr175      Cr  0.03206497  0.88104349  0.55750976     1.39100
O176        O  0.02987486  0.82274924  0.54612179    -1.23600
O177        O  0.27882972  0.95085235  0.06128174    -0.85900
O178        O  0.24765124  0.01899201  0.03460069    -0.82900
C179        C  0.25667316  0.00561010  0.01653491     0.97600
O180        O  0.24241972  0.96611718  0.00956778    -0.83000
O181        O  0.20550331  0.87509784  0.00916919    -0.85600
C182        C  0.22991378  0.84412228  0.01710966     1.02100
O183        O  0.24178673  0.84857847  0.03534380    -0.78400
O184        O  0.25217763  0.88466403  0.07409666    -0.78600
C185        C  0.28380461  0.91090441  0.07034577     1.02100
O186        O  0.20297325  0.95764956  0.08598517    -0.85900
O187        O  0.17103366  0.01781407  0.05663214    -0.82900
C188        C  0.15807675  0.03293184  0.03962550     0.97600
O189        O  0.16636905  0.00986383  0.02326916    -0.83000
O190        O  0.13100813  0.91731049  0.02508960    -0.85600
C191        C  0.12657503  0.87240416  0.02852184     1.02100
O192        O  0.15379562  0.85044050  0.03907965    -0.78400
O193        O  0.16216267  0.89812430  0.07612668    -0.78500
C194        C  0.17127338  0.93088483  0.08887991     1.02000
Cr195      Cr  0.22394927  0.98256564  0.05867631     1.93700
Cr196      Cr  0.18760062  0.94158703  0.01870793     1.93200
Cr197      Cr  0.20249466  0.87486413  0.05555298     1.39100
O198        O  0.20461239  0.93314196  0.04419860    -1.23600
O199        O  0.95847246  0.94835966  0.18644037    -0.85900
O200        O  0.98533040  0.01739971  0.21418641    -0.82900
C201        C  0.97340307  0.00335749  0.23168684     0.97600
O202        O  0.98708467  0.96376425  0.23882620    -0.83000
O203        O  0.02602543  0.87350406  0.24059916    -0.85600
C204        C  0.00453210  0.84105076  0.23171684     1.02100
O205        O  0.99546341  0.84476070  0.21307927    -0.78400
O206        O  0.98811084  0.88239700  0.17447077    -0.78600
C207        C  0.95546166  0.90762004  0.17757388     1.02100
O208        O  0.03687562  0.95622034  0.16408440    -0.85900
O209        O  0.06470182  0.01598853  0.19462616    -0.82900
C210        C  0.07559044  0.03083716  0.21204775     0.97600
O211        O  0.06465300  0.00859588  0.22813620    -0.83000
O212        O  0.10187899  0.91711512  0.22790682    -0.85600
C213        C  0.10870138  0.87297112  0.22336372     1.02100
O214        O  0.08338572  0.85065920  0.21187421    -0.78400
O215        O  0.07806399  0.89832616  0.17496180    -0.78500
C216        C  0.06946154  0.93034717  0.16191020     1.02000
Cr217      Cr  0.01249886  0.98072127  0.19084565     1.93700
Cr218      Cr  0.04377119  0.94024936  0.23187359     1.93200
Cr219      Cr  0.03598794  0.87350203  0.19423316     1.39100
O220        O  0.03077941  0.93149813  0.20579299    -1.23600
O221        O  0.95027000  0.54406558  0.33863136    -0.85900
O222        O  0.92044641  0.48363907  0.30871058    -0.82900
C223        C  0.90911293  0.46837071  0.29143880     0.97600
O224        O  0.92095350  0.48926932  0.27519942    -0.83000
O225        O  0.88543200  0.58214172  0.27579051    -0.85600
C226        C  0.88047303  0.62698688  0.27952217     1.02100
O227        O  0.90728020  0.64927398  0.29023093    -0.78400
O228        O  0.91231251  0.60491513  0.32761089    -0.78600
C229        C  0.91920914  0.57255707  0.34075433     1.02100
O230        O  0.02882063  0.54744477  0.31576934    -0.85900
O231        O  0.00000505  0.47915042  0.28861604    -0.82900
C232        C  0.01258733  0.49353246  0.27121002     0.97600
O233        O  0.99841693  0.53248889  0.26381641    -0.83000
O234        O  0.96124606  0.62286609  0.26147292    -0.85600
C235        C  0.98500858  0.65422507  0.26958228     1.02100
O236        O  0.99573729  0.65025846  0.28799759    -0.78400
O237        O  0.00237214  0.61564227  0.32714977    -0.78500
C238        C  0.03381933  0.58850522  0.32401083     1.02000
Cr239      Cr  0.97380244  0.51721724  0.31198317     1.93700
Cr240      Cr  0.94260123  0.55715196  0.27100730     1.93200
Cr241      Cr  0.95454961  0.62559501  0.30765686     1.39100
O242        O  0.95682268  0.56656416  0.29682639    -1.23600
O243        O  0.78363287  0.54733713  0.41606663    -0.85900
O244        O  0.81485766  0.48909554  0.44626069    -0.82900
C245        C  0.82638037  0.47409599  0.46351660     0.97600
O246        O  0.81494550  0.49581304  0.47969515    -0.83000
O247        O  0.85242517  0.58646880  0.47847743    -0.85600
C248        C  0.85884314  0.63052415  0.47400278     1.02100
O249        O  0.83251143  0.65311979  0.46308822    -0.78400
O250        O  0.82375123  0.60715294  0.42608605    -0.78600
C251        C  0.81514623  0.57440728  0.41329210     1.02100
O252        O  0.70722339  0.55384941  0.44000619    -0.85900
O253        O  0.73637251  0.48652852  0.46715507    -0.82900
C254        C  0.72365439  0.50267445  0.48430195     0.97600
O255        O  0.73827096  0.54190282  0.49137056    -0.83000
O256        O  0.77839659  0.63121336  0.49300497    -0.85600
C257        C  0.75610075  0.66365121  0.48477912     1.02100
O258        O  0.74427260  0.65849738  0.46655066    -0.78400
O259        O  0.73323084  0.62148395  0.42806775    -0.78500
C260        C  0.70191037  0.59435778  0.43150857     1.02000
Cr261      Cr  0.76176296  0.52288179  0.44330369     1.93700
Cr262      Cr  0.79472944  0.56426158  0.48371206     1.93200
Cr263      Cr  0.78326836  0.63073442  0.44654087     1.39100
O264        O  0.78004835  0.57267366  0.45790905    -1.23600
O265        O  0.45251635  0.95088124  0.68844399    -0.85900
O266        O  0.48151719  0.01802199  0.71637226    -0.82900
C267        C  0.47127424  0.00213807  0.73385939     0.97600
O268        O  0.48635795  0.96263896  0.74030018    -0.83000
O269        O  0.52549431  0.87280046  0.74002045    -0.85600
C270        C  0.50253715  0.84100807  0.73159264     1.02100
O271        O  0.49132789  0.84553590  0.71322177    -0.78400
O272        O  0.48093017  0.88577278  0.67496632    -0.78600
C273        C  0.44885630  0.91151885  0.67869164     1.02100
O274        O  0.52837238  0.96061343  0.66451679    -0.85900
O275        O  0.55879958  0.01881851  0.69485654    -0.82900
C276        C  0.57082362  0.03334730  0.71213205     0.97600
O277        O  0.56206240  0.00937801  0.72812154    -0.83000
O278        O  0.59960061  0.91753651  0.72549661    -0.85600
C279        C  0.60540420  0.87320239  0.72103418     1.02100
O280        O  0.57900584  0.85139990  0.70994135    -0.78400
O281        O  0.57048011  0.90189919  0.67386304    -0.78500
C282        C  0.56079135  0.93504237  0.66147851     1.02000
Cr283      Cr  0.50652460  0.98322972  0.69198849     1.93700
Cr284      Cr  0.54216927  0.94022563  0.73155426     1.93200
Cr285      Cr  0.53019571  0.87556971  0.69365199     1.39100
O286        O  0.52621676  0.93299449  0.70587104    -1.23600
O287        O  0.77883783  0.96231014  0.56530862    -0.85900
O288        O  0.74788332  0.03143101  0.53924475    -0.82900
C289        C  0.75948095  0.01853490  0.52152357     0.97600
O290        O  0.74619266  0.97895085  0.51409572    -0.83000
O291        O  0.70984310  0.88714733  0.51207821    -0.85600
C292        C  0.73211573  0.85460498  0.52037360     1.02100
O293        O  0.74306702  0.85904802  0.53877031    -0.78400
O294        O  0.75208927  0.89533690  0.57743045    -0.78600
C295        C  0.78378724  0.92145898  0.57363326     1.02100
O296        O  0.70245339  0.96672807  0.58943118    -0.85900
O297        O  0.67017698  0.02614590  0.56009841    -0.82900
C298        C  0.65926960  0.04305212  0.54310034     0.97600
O299        O  0.66850977  0.02092126  0.52659020    -0.83000
O300        O  0.63346978  0.92725843  0.52621705    -0.85600
C301        C  0.62853795  0.88263616  0.53047029     1.02100
O302        O  0.65518404  0.86146078  0.54155729    -0.78400
O303        O  0.66157411  0.90851483  0.57860401    -0.78500
C304        C  0.67044384  0.94035089  0.59177856     1.02000
Cr305      Cr  0.72370374  0.99295178  0.56253439     1.93700
Cr306      Cr  0.69068952  0.95307419  0.52169066     1.93200
Cr307      Cr  0.70303201  0.88545402  0.55852945     1.39100
O308        O  0.70568974  0.94382436  0.54742927    -1.23600
O309        O  0.45238077  0.53723123  0.83773612    -0.85900
O310        O  0.42120227  0.47982663  0.80720469    -0.82900
C311        C  0.40861078  0.46590218  0.78991040     0.97600
O312        O  0.41964267  0.48810280  0.77380156    -0.83000
O313        O  0.38381997  0.58064987  0.77514189    -0.85600
C314        C  0.37827696  0.62496930  0.77986211     1.02100
O315        O  0.40415571  0.64581582  0.79151640    -0.78400
O316        O  0.41097621  0.59611002  0.82801100    -0.78600
C317        C  0.42041447  0.56357555  0.84073614     1.02100
O318        O  0.52882345  0.54465133  0.81401263    -0.85900
O319        O  0.49928857  0.47733556  0.78650344    -0.82900
C320        C  0.51194538  0.49341766  0.76946031     0.97600
O321        O  0.49751710  0.53281018  0.76257328    -0.83000
O322        O  0.45935341  0.62327761  0.76180076    -0.85600
C323        C  0.48166790  0.65515099  0.77055288     1.02100
O324        O  0.49200252  0.65054526  0.78901626    -0.78400
O325        O  0.50111544  0.61051702  0.82711535    -0.78500
C326        C  0.53311732  0.58482805  0.82310289     1.02000
Cr327      Cr  0.47422449  0.51352373  0.81042152     1.93700
Cr328      Cr  0.44133092  0.55644802  0.77027250     1.93200
Cr329      Cr  0.45216963  0.62135071  0.80827544     1.39100
O330        O  0.45579189  0.56382306  0.79619326    -1.23600
O331        O  0.28271418  0.53505225  0.91512608    -0.85900
O332        O  0.31036086  0.47646071  0.94608198    -0.82900
C333        C  0.32303865  0.46372085  0.96347183     0.97600
O334        O  0.31255746  0.48735853  0.97942298    -0.83000
O335        O  0.35029671  0.57923002  0.97769079    -0.85600
C336        C  0.35670653  0.62323395  0.97282738     1.02100
O337        O  0.33074715  0.64466019  0.96140294    -0.78400
O338        O  0.32457169  0.59358159  0.92504786    -0.78600
C339        C  0.31484267  0.56112734  0.91226771     1.02100
O340        O  0.20493667  0.54682267  0.93777954    -0.85900
O341        O  0.23174794  0.47928319  0.96625463    -0.82900
C342        C  0.22039900  0.49580013  0.98353918     0.97600
O343        O  0.23556343  0.53499696  0.99027006    -0.83000
O344        O  0.27481715  0.62438596  0.99045416    -0.85600
C345        C  0.25221429  0.65547050  0.98140771     1.02100
O346        O  0.24234799  0.64998255  0.96294990    -0.78400
O347        O  0.23502618  0.61065411  0.92460976    -0.78500
C348        C  0.20220081  0.58644445  0.92811973     1.02000
Cr349      Cr  0.25866022  0.51320260  0.94226906     1.93700
Cr350      Cr  0.29214535  0.55668269  0.98247017     1.93200
Cr351      Cr  0.28298542  0.62029955  0.94423417     1.39100
O352        O  0.27815720  0.56324295  0.95642901    -1.23600
O353        O  0.77968321  0.45671995  0.06507068    -0.85900
O354        O  0.74972715  0.52341462  0.03728577    -0.82900
C355        C  0.76350751  0.50729050  0.02035749     0.97600
O356        O  0.75077256  0.46695488  0.01353500    -0.83000
O357        O  0.71403209  0.37522901  0.01212999    -0.85600
C358        C  0.73600166  0.34372294  0.02132280     1.02100
O359        O  0.74637590  0.35023232  0.03964006    -0.78400
O360        O  0.75299840  0.39024483  0.07774702    -0.78600
C361        C  0.78461846  0.41655406  0.07399284     1.02100
O362        O  0.70176408  0.46210833  0.08808750    -0.85900
O363        O  0.67070561  0.51843227  0.05735705    -0.82900
C364        C  0.65850569  0.53150736  0.03995785     0.97600
O365        O  0.67151872  0.51012563  0.02388902    -0.83000
O366        O  0.63752220  0.41714319  0.02456504    -0.85600
C367        C  0.63231364  0.37298207  0.02934835     1.02100
O368        O  0.65786466  0.35209753  0.04120347    -0.78400
O369        O  0.66268459  0.40177735  0.07779278    -0.78500
C370        C  0.67064480  0.43435369  0.09080415     1.02000
Cr371      Cr  0.72444109  0.48639690  0.06101533     1.93700
Cr372      Cr  0.69469342  0.44219622  0.02044128     1.93200
Cr373      Cr  0.70502704  0.37792764  0.05844815     1.39100
O374        O  0.70780115  0.43547372  0.04653209    -1.23600
O375        O  0.45756889  0.45125834  0.18987432    -0.85900
O376        O  0.48789095  0.51992561  0.21643229    -0.82900
C377        C  0.47695429  0.50551536  0.23399672     0.97600
O378        O  0.49155921  0.46629188  0.24105219    -0.83000
O379        O  0.53047331  0.37571580  0.24220375    -0.85600
C380        C  0.50795323  0.34324008  0.23400637     1.02100
O381        O  0.49590395  0.34824547  0.21582460    -0.78400
O382        O  0.48428441  0.38425616  0.17738678    -0.78600
C383        C  0.45256923  0.41059238  0.18126621     1.02100
O384        O  0.53318530  0.45791769  0.16538564    -0.85900
O385        O  0.56508804  0.51835564  0.19500288    -0.82900
C386        C  0.57774457  0.53344523  0.21214021     0.97600
O387        O  0.56816367  0.51107160  0.22843652    -0.83000
O388        O  0.60487959  0.41887267  0.22730806    -0.85600
C389        C  0.61063411  0.37448771  0.22277383     1.02100
O390        O  0.58382557  0.35249144  0.21201890    -0.78400
O391        O  0.57456001  0.39878720  0.17511767    -0.78500
C392        C  0.56477493  0.43099544  0.16236842     1.02000
Cr393      Cr  0.51224874  0.48306765  0.19261990     1.93700
Cr394      Cr  0.54743464  0.44255809  0.23280822     1.93200
Cr395      Cr  0.53456314  0.37539733  0.19570462     1.39100
O396        O  0.53167019  0.43374940  0.20712411    -1.23600
O397        O  0.28381254  0.04774288  0.41540518    -0.85900
O398        O  0.31248529  0.98923586  0.44598046    -0.82900
C399        C  0.32441570  0.97531173  0.46334481     0.97600
O400        O  0.31369515  0.99824803  0.47937029    -0.83000
O401        O  0.35083306  0.08927018  0.47776264    -0.85600
C402        C  0.35697560  0.13350018  0.47341462     1.02100
O403        O  0.33110024  0.15577889  0.46224499    -0.78400
O404        O  0.32501591  0.10650303  0.42555417    -0.78600
C405        C  0.31635734  0.07331512  0.41292544     1.02100
O406        O  0.20621968  0.05731021  0.43843141    -0.85900
O407        O  0.23383580  0.98972809  0.46628323    -0.82900
C408        C  0.22235605  0.00516808  0.48374276     0.97600
O409        O  0.23688228  0.04458620  0.49058051    -0.83000
O410        O  0.27579999  0.13419589  0.49129273    -0.85600
C411        C  0.25305202  0.16555201  0.48257226     1.02100
O412        O  0.24290823  0.16041476  0.46411481    -0.78400
O413        O  0.23512851  0.12233601  0.42563888    -0.78500
C414        C  0.20270254  0.09756628  0.42936390     1.02000
Cr415      Cr  0.26021694  0.02467490  0.44244645     1.93700
Cr416      Cr  0.29313451  0.06695633  0.48280217     1.93200
Cr417      Cr  0.28336847  0.13195582  0.44503167     1.39100
O418        O  0.27901567  0.07445255  0.45686491    -1.23600
O419        O  0.45282544  0.03908366  0.33852367    -0.85900
O420        O  0.42402191  0.97813567  0.30848544    -0.82900
C421        C  0.41301984  0.96246942  0.29119709     0.97600
O422        O  0.42329027  0.98481105  0.27502276    -0.83000
O423        O  0.38484825  0.07565985  0.27608089    -0.85600
C424        C  0.37804236  0.11989961  0.28043040     1.02100
O425        O  0.40426936  0.14343370  0.29098436    -0.78400
O426        O  0.41229049  0.09813370  0.32798961    -0.78600
C427        C  0.42075955  0.06582208  0.34090821     1.02100
O428        O  0.53022155  0.04662355  0.31497215    -0.85900
O429        O  0.50276831  0.97756902  0.28784889    -0.82900
C430        C  0.51452280  0.99292827  0.27046801     0.97600
O431        O  0.49933070  0.03174091  0.26339265    -0.83000
O432        O  0.45905644  0.12086034  0.26168929    -0.85600
C433        C  0.48155191  0.15331453  0.26990704     1.02100
O434        O  0.49265566  0.14886840  0.28825287    -0.78400
O435        O  0.50228614  0.11352614  0.32688965    -0.78500
C436        C  0.53439852  0.08770126  0.32329594     1.02000
Cr437      Cr  0.47622384  0.01403704  0.31154522     1.93700
Cr438      Cr  0.44277219  0.05376744  0.27096635     1.93200
Cr439      Cr  0.45309220  0.12157781  0.30793139     1.39100
O440        O  0.45716220  0.06303429  0.29675853    -1.23600
O441        O  0.95688822  0.44990759  0.69122407    -0.85900
O442        O  0.98593069  0.51837930  0.71829620    -0.82900
C443        C  0.97393699  0.50309697  0.73559598     0.97600
O444        O  0.98865810  0.46390657  0.74257641    -0.83000
O445        O  0.02835102  0.37388500  0.74364814    -0.85600
C446        C  0.00616454  0.34163519  0.73505591     1.02100
O447        O  0.99586106  0.34551812  0.71657530    -0.78400
O448        O  0.98509068  0.38380584  0.67849696    -0.78600
C449        C  0.95291809  0.40939947  0.68235270     1.02100
O450        O  0.03274770  0.45802119  0.66711961    -0.85900
O451        O  0.06379419  0.51725812  0.69737319    -0.82900
C452        C  0.07603776  0.53181783  0.71465457     0.97600
O453        O  0.06545186  0.50968827  0.73084118    -0.83000
O454        O  0.10285544  0.41831853  0.72965207    -0.85600
C455        C  0.10932030  0.37408278  0.72528097     1.02100
O456        O  0.08375678  0.35192845  0.71378506    -0.78400
O457        O  0.07512566  0.40017281  0.67694493    -0.78500
C458        C  0.06482506  0.43190223  0.66403263     1.02000
Cr459      Cr  0.01113711  0.48214827  0.69445611     1.93700
Cr460      Cr  0.04506287  0.44102868  0.73473364     1.93200
Cr461      Cr  0.03483842  0.37480441  0.69707689     1.39100
O462        O  0.03044560  0.43262132  0.70887727    -1.23600
O463        O  0.27773253  0.46017385  0.56589899    -0.85900
O464        O  0.24928458  0.52805730  0.53861964    -0.82900
C465        C  0.26149172  0.51273782  0.52123417     0.97600
O466        O  0.24713168  0.47342296  0.51414954    -0.83000
O467        O  0.20833788  0.38358098  0.51245380    -0.85600
C468        C  0.23173721  0.35235156  0.52081554     1.02100
O469        O  0.24264492  0.35736407  0.53915867    -0.78400
O470        O  0.25082264  0.39315367  0.57788859    -0.78600
C471        C  0.28246240  0.41986614  0.57466132     1.02100
O472        O  0.20028037  0.46625169  0.58919572    -0.85900
O473        O  0.17037453  0.52577129  0.55911808    -0.82900
C474        C  0.15963683  0.54099452  0.54178906     0.97600
O475        O  0.17032990  0.51867157  0.52561912    -0.83000
O476        O  0.13324144  0.42727763  0.52645478    -0.85600
C477        C  0.12729138  0.38288555  0.53065938     1.02100
O478        O  0.15381689  0.36027024  0.54141469    -0.78400
O479        O  0.16036832  0.40659071  0.57863724    -0.78500
C480        C  0.16915220  0.43840004  0.59183299     1.02000
Cr481      Cr  0.22321391  0.49140014  0.56226893     1.93700
Cr482      Cr  0.19088426  0.45031529  0.52159109     1.93200
Cr483      Cr  0.20200407  0.38364804  0.55865801     1.39100
O484        O  0.20514399  0.44187956  0.54744824    -1.23600
O485        O  0.95119324  0.04189496  0.83948306    -0.85900
O486        O  0.92196716  0.98161197  0.80931417    -0.82900
C487        C  0.91210249  0.96467694  0.79209948     0.97600
O488        O  0.92271209  0.98667966  0.77584091    -0.83000
O489        O  0.88676104  0.07978402  0.77526134    -0.85600
C490        C  0.88134909  0.12452959  0.77922627     1.02100
O491        O  0.90692245  0.14620283  0.79077175    -0.78400
O492        O  0.91085720  0.10040351  0.82828107    -0.78600
C493        C  0.91927352  0.06884795  0.84160344     1.02100
O494        O  0.02932823  0.04712475  0.81695622    -0.85900
O495        O  0.00147822  0.97751451  0.78984625    -0.82900
C496        C  0.01398586  0.99072296  0.77234056     0.97600
O497        O  0.00071726  0.03020776  0.76494689    -0.83000
O498        O  0.96336186  0.12107655  0.76234069    -0.85600
C499        C  0.98584176  0.15302263  0.77098365     1.02100
O500        O  0.99511107  0.14942829  0.78961334    -0.78400
O501        O  0.00083217  0.11392603  0.82864692    -0.78500
C502        C  0.03305301  0.08807454  0.82558782     1.02000
Cr503      Cr  0.97487774  0.01568518  0.81288858     1.93700
Cr504      Cr  0.94442492  0.05493036  0.77158549     1.93200
Cr505      Cr  0.95352990  0.12310407  0.80871054     1.39100
O506        O  0.95743550  0.06454581  0.79761326    -1.23600
O507        O  0.78592539  0.04082122  0.91700036    -0.85900
O508        O  0.81782918  0.98175278  0.94664035    -0.82900
C509        C  0.82936904  0.96584962  0.96374080     0.97600
O510        O  0.81859944  0.98733059  0.98015510    -0.83000
O511        O  0.85207286  0.08112614  0.97990876    -0.85600
C512        C  0.85642455  0.12589768  0.97606025     1.02100
O513        O  0.82946002  0.14745017  0.96519141    -0.78400
O514        O  0.82428154  0.10148222  0.92778388    -0.78600
C515        C  0.81692530  0.06893871  0.91466805     1.02100
O516        O  0.70864653  0.04363870  0.94040129    -0.85900
O517        O  0.73915966  0.97585201  0.96718789    -0.82900
C518        C  0.72690759  0.98931060  0.98479153     0.97600
O519        O  0.74012989  0.02887664  0.99221569    -0.83000
O520        O  0.77559706  0.12078365  0.99430735    -0.85600
C521        C  0.75196335  0.15226499  0.98612528     1.02100
O522        O  0.74113552  0.14784273  0.96772595    -0.78400
O523        O  0.73375963  0.11187371  0.92868033    -0.78500
C524        C  0.70283137  0.08425672  0.93193764     1.02000
Cr525      Cr  0.76396800  0.01424767  0.94380819     1.93700
Cr526      Cr  0.79541893  0.05500449  0.98470537     1.93200
Cr527      Cr  0.78214780  0.12271244  0.94794110     1.39100
O528        O  0.78061191  0.06397097  0.95891991    -1.23600
O529        O  0.95363886  0.70755607  0.91248921    -0.85900
O530        O  0.92552246  0.76699136  0.94337659    -0.82900
C531        C  0.91372240  0.78098002  0.96082527     0.97600
O532        O  0.92476571  0.75843509  0.97683908    -0.83000
O533        O  0.88502438  0.66852263  0.97608733    -0.85600
C534        C  0.87753062  0.62465113  0.97156860     1.02100
O535        O  0.90142291  0.60232797  0.95918360    -0.78400
O536        O  0.90987580  0.65174963  0.92266450    -0.78600
C537        C  0.92033521  0.68358857  0.90986644     1.02100
O538        O  0.03043832  0.69542416  0.93541633    -0.85900
O539        O  0.00397905  0.76446770  0.96346839    -0.82900
C540        C  0.01530568  0.74887399  0.98082644     0.97600
O541        O  0.00080245  0.70929091  0.98740731    -0.83000
O542        O  0.95915198  0.62088522  0.98849095    -0.85600
C543        C  0.97859431  0.58691978  0.97931682     1.02100
O544        O  0.98857647  0.59084698  0.96078958    -0.78400
O545        O  0.00005858  0.63066689  0.92282431    -0.78500
C546        C  0.03310912  0.65487098  0.92632976     1.02000
Cr547      Cr  0.97711363  0.72979368  0.93966570     1.93700
Cr548      Cr  0.94367669  0.68886409  0.98019394     1.93200
Cr549      Cr  0.95030119  0.62343689  0.94195856     1.39100
O550        O  0.95704646  0.68057132  0.95409237    -1.23600
O551        O  0.77956056  0.71349148  0.83684523    -0.85900
O552        O  0.81004214  0.76982622  0.80587819    -0.82900
C553        C  0.82279571  0.78289383  0.78851025     0.97600
O554        O  0.81167823  0.76007286  0.77251639    -0.83000
O555        O  0.84844731  0.66876175  0.77504689    -0.85600
C556        C  0.85480055  0.62483985  0.77976674     1.02100
O557        O  0.82876929  0.60319026  0.79113141    -0.78400
O558        O  0.82094933  0.65418647  0.82718576    -0.78600
C559        C  0.81164873  0.68728596  0.83977444     1.02100
O560        O  0.70288618  0.70395703  0.81329555    -0.85900
O561        O  0.73193226  0.76992404  0.78510025    -0.82900
C562        C  0.72027721  0.75330173  0.76790365     0.97600
O563        O  0.73473158  0.71334381  0.76140811    -0.83000
O564        O  0.77423382  0.62291536  0.76140905    -0.85600
C565        C  0.75219692  0.59111447  0.77038399     1.02100
O566        O  0.74078967  0.59744584  0.78863127    -0.78400
O567        O  0.73099959  0.63881599  0.82656029    -0.78500
C568        C  0.69886354  0.66413676  0.82257461     1.02000
Cr569      Cr  0.75724686  0.73555337  0.80937278     1.93700
Cr570      Cr  0.79093049  0.69100710  0.76949532     1.93200
Cr571      Cr  0.78014739  0.62776172  0.80771623     1.39100
O572        O  0.77606049  0.68474222  0.79540144    -1.23600
O573        O  0.95607325  0.29758658  0.06616638    -0.85900
O574        O  0.98599657  0.23024423  0.03854857    -0.82900
C575        C  0.97295619  0.24637079  0.02159155     0.97600
O576        O  0.98639579  0.28628903  0.01483103    -0.83000
O577        O  0.02353626  0.37693925  0.01391809    -0.85600
C578        C  0.00098563  0.40819682  0.02308303     1.02100
O579        O  0.99129255  0.40288454  0.04155029    -0.78400
O580        O  0.98342015  0.36333936  0.07933420    -0.78600
C581        C  0.95148503  0.33793771  0.07513717     1.02100
O582        O  0.03280040  0.29066140  0.08964468    -0.85900
O583        O  0.06434165  0.23292422  0.05889655    -0.82900
C584        C  0.07642838  0.21945652  0.04141879     0.97600
O585        O  0.06459175  0.24162698  0.02542773    -0.83000
O586        O  0.09985398  0.33395139  0.02668760    -0.85600
C587        C  0.10547717  0.37814943  0.03130058     1.02100
O588        O  0.07968257  0.39949085  0.04304996    -0.78400
O589        O  0.07384287  0.34966618  0.07963180    -0.78500
C590        C  0.06443507  0.31745831  0.09247412     1.02000
Cr591      Cr  0.01093561  0.26656366  0.06242433     1.93700
Cr592      Cr  0.04248705  0.30999124  0.02212484     1.93200
Cr593      Cr  0.03207471  0.37452708  0.06024268     1.39100
O594        O  0.02873618  0.31702054  0.04815538    -1.23600
O595        O  0.27977840  0.29332212  0.18934546    -0.85900
O596        O  0.24956462  0.22439102  0.21586304    -0.82900
C597        C  0.26196702  0.23735458  0.23341501     0.97600
O598        O  0.24933149  0.27732076  0.24085957    -0.83000
O599        O  0.21184230  0.36899187  0.24335189    -0.85600
C600        C  0.23394670  0.40143088  0.23484618     1.02100
O601        O  0.24383930  0.39779208  0.21626865    -0.78400
O602        O  0.25286353  0.36088688  0.17769446    -0.78600
C603        C  0.28461990  0.33428351  0.18107579     1.02100
O604        O  0.20283826  0.28891699  0.16593497    -0.85900
O605        O  0.17135152  0.22944804  0.19568153    -0.82900
C606        C  0.15952390  0.21444802  0.21290748     0.97600
O607        O  0.17142071  0.23498226  0.22928756    -0.83000
O608        O  0.13596742  0.32723315  0.22963400    -0.85600
C609        C  0.13007707  0.37167662  0.22568087     1.02100
O610        O  0.15582577  0.39378626  0.21428555    -0.78400
O611        O  0.16217857  0.34733007  0.17693381    -0.78500
C612        C  0.17098453  0.31572581  0.16358608     1.02000
Cr613      Cr  0.22479907  0.26274755  0.19269938     1.93700
Cr614      Cr  0.19337656  0.30271736  0.23384560     1.93200
Cr615      Cr  0.20375944  0.37050138  0.19685697     1.39100
O616        O  0.20728073  0.31205757  0.20794295    -1.23600
O617        O  0.28524924  0.70571487  0.33879315    -0.85900
O618        O  0.31743366  0.76350886  0.30869476    -0.82900
C619        C  0.32970296  0.77751789  0.29140149     0.97600
O620        O  0.31738574  0.75652281  0.27518509    -0.83000
O621        O  0.35026080  0.66257273  0.27567214    -0.85600
C622        C  0.35483204  0.61807503  0.28017066     1.02100
O623        O  0.32771940  0.59730741  0.29113356    -0.78400
O624        O  0.32305646  0.64431508  0.32809084    -0.78600
C625        C  0.31628275  0.67742213  0.34104130     1.02100
O626        O  0.20748698  0.70343246  0.31565460    -0.85900
O627        O  0.23874137  0.77030321  0.28856260    -0.82900
C628        C  0.22599525  0.75679271  0.27110695     0.97600
O629        O  0.23833698  0.71646785  0.26386365    -0.83000
O630        O  0.27344589  0.62339542  0.26197515    -0.85600
C631        C  0.25018961  0.59219682  0.27056949     1.02100
O632        O  0.23936339  0.59779099  0.28893029    -0.78400
O633        O  0.23266078  0.63545651  0.32763857    -0.78500
C634        C  0.20163082  0.66288644  0.32410069     1.02000
Cr635      Cr  0.26320537  0.73196854  0.31197203     1.93700
Cr636      Cr  0.29360407  0.68934461  0.27109862     1.93200
Cr637      Cr  0.28064759  0.62312034  0.30831834     1.39100
O638        O  0.27929730  0.68149861  0.29702342    -1.23600
O639        O  0.45201040  0.71218528  0.41527927    -0.85900
O640        O  0.42058301  0.77277638  0.44465582    -0.82900
C641        C  0.41001199  0.79089010  0.46154210     0.97600
O642        O  0.42002284  0.77000424  0.47812393    -0.83000
O643        O  0.38384767  0.67737144  0.47847248    -0.85600
C644        C  0.37852262  0.63250873  0.47494997     1.02100
O645        O  0.40504785  0.60973710  0.46408335    -0.78400
O646        O  0.41169526  0.65378708  0.42650163    -0.78600
C647        C  0.42037945  0.68496645  0.41312059     1.02100
O648        O  0.52895376  0.70878099  0.43880382    -0.85900
O649        O  0.49918630  0.77864551  0.46522928    -0.82900
C650        C  0.51080487  0.76577675  0.48294909     0.97600
O651        O  0.49708581  0.72660410  0.49046411    -0.83000
O652        O  0.45911714  0.63568019  0.49299340    -0.85600
C653        C  0.48208383  0.60336877  0.48475988     1.02100
O654        O  0.49340936  0.60732838  0.46643591    -0.78400
O655        O  0.50209214  0.64087331  0.42741737    -0.78500
C656        C  0.53369809  0.66776100  0.43046487     1.02000
Cr657      Cr  0.47403768  0.73957313  0.44200243     1.93700
Cr658      Cr  0.44121022  0.70181737  0.48310603     1.93200
Cr659      Cr  0.45315257  0.63226012  0.44666753     1.39100
O660        O  0.45610738  0.69121528  0.45737502    -1.23600
O661        O  0.77902619  0.29164717  0.68779185    -0.85900
O662        O  0.74817097  0.22349194  0.71417099    -0.82900
C663        C  0.76196813  0.23741526  0.73137822     0.97600
O664        O  0.74928124  0.27715665  0.73897461    -0.83000
O665        O  0.71348496  0.36891977  0.74241454    -0.85600
C666        C  0.73690818  0.40047874  0.73423773     1.02100
O667        O  0.74759808  0.39622616  0.71580616    -0.78400
O668        O  0.75444413  0.36087651  0.67681990    -0.78600
C669        C  0.78532906  0.33301394  0.68018325     1.02100
O670        O  0.70140327  0.29122737  0.66469231    -0.85900
O671        O  0.66890343  0.23163560  0.69437706    -0.82900
C672        C  0.65694139  0.21687203  0.71163080     0.97600
O673        O  0.67016792  0.23668545  0.72791964    -0.83000
O674        O  0.63691477  0.33010101  0.72849006    -0.85600
C675        C  0.63207427  0.37480594  0.72462173     1.02100
O676        O  0.65890357  0.39667734  0.71374580    -0.78400
O677        O  0.66378632  0.35230588  0.67604444    -0.78500
C678        C  0.67121784  0.32073024  0.66249214     1.02000
Cr679      Cr  0.72328969  0.26320675  0.69122498     1.93700
Cr680      Cr  0.69366714  0.30362593  0.73254959     1.93200
Cr681      Cr  0.70617123  0.37211873  0.69615773     1.39100
O682        O  0.70744517  0.31297896  0.70670072    -1.23600
O683        O  0.45516844  0.30565708  0.56633986    -0.85900
O684        O  0.48473014  0.23765897  0.53895051    -0.82900
C685        C  0.47152509  0.25133429  0.52167381     0.97600
O686        O  0.48395079  0.29138918  0.51445800    -0.83000
O687        O  0.52073473  0.38271753  0.51242749    -0.85600
C688        C  0.49848281  0.41470001  0.52126946     1.02100
O689        O  0.48888711  0.41051716  0.53982978    -0.78400
O690        O  0.48198576  0.37306657  0.57829862    -0.78600
C691        C  0.45040227  0.34620876  0.57511690     1.02100
O692        O  0.53268978  0.30107386  0.58900891    -0.85900
O693        O  0.56373285  0.24233584  0.55841812    -0.82900
C694        C  0.57475477  0.22751000  0.54093940     0.97600
O695        O  0.56265676  0.24908332  0.52491688    -0.83000
O696        O  0.59739077  0.34154609  0.52509379    -0.85600
C697        C  0.60331706  0.38580609  0.52955653     1.02100
O698        O  0.57749033  0.40770017  0.54112867    -0.78400
O699        O  0.57264308  0.36029423  0.57830722    -0.78500
C700        C  0.56405745  0.32844995  0.59146740     1.02000
Cr701      Cr  0.51017826  0.27543363  0.56220782     1.93700
Cr702      Cr  0.54001167  0.31667407  0.52119283     1.93200
Cr703      Cr  0.53019416  0.38349205  0.55875705     1.39100
O704        O  0.52693144  0.32523772  0.54727437    -1.23600
C705        C  0.60115422  0.32458170  0.64667641    -0.20800
C706        C  0.64443901  0.31930271  0.64402985    -0.07400
C707        C  0.66092815  0.31571733  0.62398409     0.13500
C708        C  0.63381619  0.31862863  0.60714582    -0.20900
C709        C  0.59059994  0.32385146  0.60983975    -0.07400
C710        C  0.57400046  0.32639219  0.62985248     0.13500
C711        C  0.52792501  0.33292465  0.63350722    -0.24200
H712        H  0.58851864  0.32740506  0.66204769     0.14700
H713        H  0.64639095  0.31675296  0.59173872     0.14800
C714        C  0.70708712  0.31071416  0.62022240    -0.24200
H715        H  0.52050501  0.33612659  0.65007697     0.05000
H716        H  0.51070472  0.30102168  0.62735915     0.08200
H717        H  0.51686987  0.36663265  0.62582702     0.08200
H718        H  0.71857366  0.27587578  0.62675640     0.08200
H719        H  0.72381259  0.34176177  0.62742336     0.08200
H720        H  0.71462098  0.31052003  0.60361634     0.05000
C721        C  0.52463687  0.47975935  0.49929829    -0.20800
C722        C  0.49146496  0.46148379  0.51102640    -0.07400
C723        C  0.45606701  0.49086962  0.51474615     0.13500
C724        C  0.45513263  0.53819707  0.50679564    -0.20900
C725        C  0.48849681  0.55657331  0.49515242    -0.07400
C726        C  0.52368859  0.52687881  0.49130215     0.13500
C727        C  0.56068124  0.54461744  0.47916626    -0.24200
H728        H  0.55214927  0.45744259  0.49680998     0.14700
H729        H  0.42750768  0.56041692  0.50913676     0.14800
C730        C  0.41877993  0.47219967  0.52641557    -0.24200
H731        H  0.58668828  0.51778947  0.47925352     0.05000
H732        H  0.57231228  0.57940237  0.48576045     0.08200
H733        H  0.55181578  0.55007262  0.46297743     0.08200
H734        H  0.42718756  0.46533720  0.54258833     0.08200
H735        H  0.40739832  0.43791220  0.51926563     0.08200
H736        H  0.39270043  0.49895600  0.52643173     0.05000
C737        C  0.32640401  0.69452750  0.37814483    -0.20800
C738        C  0.34398149  0.68190595  0.35914297    -0.07400
C739        C  0.38762225  0.67346754  0.35784202     0.13500
C740        C  0.41220855  0.67758805  0.37554133    -0.20900
C741        C  0.39417502  0.68773175  0.39461756    -0.07400
C742        C  0.35082093  0.69657736  0.39595855     0.13500
C743        C  0.33029812  0.70857006  0.41615921    -0.24200
H744        H  0.29315986  0.70120183  0.37918863     0.14700
H745        H  0.44543883  0.67061519  0.37466958     0.14800
C746        C  0.40868053  0.65993666  0.33793534    -0.24200
H747        H  0.29647258  0.71602967  0.41435239     0.05000
H748        H  0.34498011  0.74151146  0.42294584     0.08200
H749        H  0.33368184  0.67747688  0.42686774     0.08200
H750        H  0.40091800  0.68707233  0.32600615     0.08200
H751        H  0.39832025  0.62323460  0.33285719     0.08200
H752        H  0.44313073  0.65868868  0.33947687     0.05000
C753        C  0.20834219  0.46659535  0.25751666    -0.20800
C754        C  0.24121508  0.44803271  0.24548027    -0.07400
C755        C  0.27576544  0.47807568  0.24105964     0.13500
C756        C  0.27579248  0.52622076  0.24821793    -0.20900
C757        C  0.24324396  0.54466130  0.26049689    -0.07400
C758        C  0.20894704  0.51438852  0.26519094     0.13500
C759        C  0.17232028  0.53238876  0.27767153    -0.24200
H760        H  0.18123511  0.44406945  0.26040178     0.14700
H761        H  0.30285734  0.54867262  0.24509732     0.14800
C762        C  0.31379368  0.46040618  0.22953512    -0.24200
H763        H  0.14676127  0.50512714  0.27816176     0.05000
H764        H  0.15963056  0.56637921  0.27086816     0.08200
H765        H  0.18195075  0.53938895  0.29369063     0.08200
H766        H  0.31636950  0.48016025  0.21478343     0.08200
H767        H  0.31358184  0.42062409  0.22647520     0.08200
H768        H  0.34211610  0.46788760  0.23875696     0.05000
C769        C  0.13260493  0.30128598  0.10861730    -0.20800
C770        C  0.09017792  0.31234579  0.11099462    -0.07400
C771        C  0.07404850  0.32186497  0.13069267     0.13500
C772        C  0.10112844  0.32155884  0.14754395    -0.20900
C773        C  0.14392184  0.31129541  0.14523680    -0.07400
C774        C  0.15960259  0.29969846  0.12551183     0.13500
C775        C  0.20483854  0.28738376  0.12194436    -0.24200
H776        H  0.14473392  0.29436373  0.09338132     0.14700
H777        H  0.08883629  0.32990674  0.16263166     0.14800
C778        C  0.02873200  0.33447471  0.13382662    -0.24200
H779        H  0.21170807  0.28115294  0.10546141     0.05000
H780        H  0.21302299  0.25339935  0.13022255     0.08200
H781        H  0.22479580  0.31782388  0.12737049     0.08200
H782        H  0.00894906  0.30354287  0.12876677     0.08200
H783        H  0.02065182  0.36744489  0.12481690     0.08200
H784        H  0.02151681  0.34212037  0.15016808     0.05000
C785        C  0.78046813  0.52364516  0.74952681    -0.20800
C786        C  0.74670044  0.54283433  0.76078594    -0.07400
C787        C  0.71144486  0.51342944  0.76447920     0.13500
C788        C  0.71066227  0.46595616  0.75654334    -0.20900
C789        C  0.74401082  0.44710026  0.74492356    -0.07400
C790        C  0.77964421  0.47612942  0.74154141     0.13500
C791        C  0.81719659  0.45705751  0.73004357    -0.24200
H792        H  0.80813335  0.54565572  0.74730075     0.14700
H793        H  0.68297128  0.44402238  0.75880838     0.14800
C794        C  0.67401896  0.53215446  0.77614087    -0.24200
H795        H  0.84335809  0.48354448  0.73030066     0.05000
H796        H  0.80927559  0.45029497  0.71377473     0.08200
H797        H  0.82828887  0.42265814  0.73715088     0.08200
H798        H  0.66251399  0.56641419  0.76907717     0.08200
H799        H  0.68237728  0.53901983  0.79233488     0.08200
H800        H  0.64807679  0.50538151  0.77610873     0.05000
C801        C  0.99359656  0.54235863  0.01098611    -0.20800
C802        C  0.98517245  0.54052660  0.98999754    -0.07400
C803        C  0.97750674  0.49482463  0.98042619     0.13500
C804        C  0.98137270  0.45214689  0.99189784    -0.20900
C805        C  0.99091214  0.45400974  0.01272871    -0.07400
C806        C  0.99626953  0.49973789  0.02257295     0.13500
C807        C  0.00610696  0.50421247  0.04507943    -0.24200
H808        H  0.99807378  0.57748469  0.01836383     0.14700
H809        H  0.97702819  0.41693014  0.98456733     0.14800
C810        C  0.96366712  0.49018590  0.95846248    -0.24200
H811        H  0.01039399  0.54283589  0.04984658     0.05000
H812        H  0.03536240  0.48432803  0.04860412     0.08200
H813        H  0.98005374  0.48917533  0.05429500     0.08200
H814        H  0.98899364  0.50143336  0.94811158     0.08200
H815        H  0.93568028  0.51293119  0.95569254     0.08200
H816        H  0.95561721  0.45194975  0.95439421     0.05000
C817        C  0.85025453  0.69508744  0.89470209    -0.20800
C818        C  0.89357940  0.69143991  0.89172926    -0.07400
C819        C  0.90972656  0.69136098  0.87160711     0.13500
C820        C  0.88203040  0.69209367  0.85499201    -0.20900
C821        C  0.83862847  0.69388715  0.85794446    -0.07400
C822        C  0.82257807  0.69697252  0.87806097     0.13500
C823        C  0.77639054  0.69980637  0.88208876    -0.24200
H824        H  0.83797531  0.69554834  0.91017958     0.14700
H825        H  0.89430018  0.69013445  0.83952900     0.14800
C826        C  0.95588889  0.68791039  0.86755094    -0.24200
H827        H  0.76930086  0.70045702  0.89874142     0.05000
H828        H  0.76062381  0.66762361  0.87525236     0.08200
H829        H  0.76350400  0.73370458  0.87530888     0.08200
H830        H  0.96868892  0.65434250  0.87466934     0.08200
H831        H  0.97181986  0.72038500  0.87401630     0.08200
H832        H  0.96291873  0.68646462  0.85090036     0.05000
C833        C  0.83819474  0.88318476  0.94992944    -0.20800
C834        C  0.85102221  0.91848862  0.96421834    -0.07400
C835        C  0.88293975  0.90720965  0.97827475     0.13500
C836        C  0.90186472  0.86102965  0.97731256    -0.20900
C837        C  0.88977143  0.82646251  0.96255154    -0.07400
C838        C  0.85718901  0.83738454  0.94884857     0.13500
C839        C  0.84164336  0.80071531  0.93334577    -0.24200
H840        H  0.81295211  0.89148595  0.93949586     0.14700
H841        H  0.92723152  0.85246858  0.98763489     0.14800
C842        C  0.89843721  0.94416385  0.99357997    -0.24200
H843        H  0.81390109  0.81441885  0.92499053     0.05000
H844        H  0.83268033  0.76641356  0.94119447     0.08200
H845        H  0.86612823  0.79286209  0.92176986     0.08200
H846        H  0.87322445  0.95387644  0.00452202     0.08200
H847        H  0.90900045  0.97740161  0.98544127     0.08200
H848        H  0.92511357  0.92987252  0.00257392     0.05000
C849        C  0.94955313  0.16567292  0.00875885    -0.20800
C850        C  0.94398896  0.21652075  0.00913121    -0.07400
C851        C  0.91133273  0.23739065  0.99763815     0.13500
C852        C  0.88469558  0.20679525  0.98643650    -0.20900
C853        C  0.88951279  0.15556573  0.98629083    -0.07400
C854        C  0.92299082  0.13491205  0.99751493     0.13500
C855        C  0.93137045  0.08075491  0.99784161    -0.24200
H856        H  0.97504567  0.14983424  0.01736196     0.14700
H857        H  0.85905055  0.22329138  0.97819135     0.14800
C858        C  0.90327764  0.29168324  0.99774153    -0.24200
H859        H  0.96041994  0.07184040  0.00626957     0.05000
H860        H  0.93498307  0.06685524  0.98194412     0.08200
H861        H  0.90548078  0.06153181  0.00566622     0.08200
H862        H  0.92955691  0.31104568  0.99030484     0.08200
H863        H  0.89972415  0.30497525  0.01373245     0.08200
H864        H  0.87442559  0.30123285  0.98927659     0.05000
C865        C  0.86699801  0.90615193  0.77340762    -0.20800
C866        C  0.89064581  0.91710681  0.79089086    -0.07400
C867        C  0.89544719  0.88115850  0.80629397     0.13500
C868        C  0.87444537  0.83687548  0.80431345    -0.20900
C869        C  0.84908608  0.82687683  0.78740096    -0.07400
C870        C  0.84627039  0.86134658  0.77138665     0.13500
C871        C  0.82069691  0.85205755  0.75246799    -0.24200
H872        H  0.86419493  0.93309493  0.76137978     0.14700
H873        H  0.87731504  0.80989138  0.81634517     0.14800
C874        C  0.92316927  0.88809209  0.82473575    -0.24200
H875        H  0.82112380  0.88370202  0.74189425     0.05000
H876        H  0.78787127  0.84511075  0.75678567     0.08200
H877        H  0.83336424  0.82001409  0.74404490     0.08200
H878        H  0.91063672  0.91754143  0.83472796     0.08200
H879        H  0.95532392  0.89709103  0.81970968     0.08200
H880        H  0.92507377  0.85458549  0.83421474     0.05000
C881        C  0.82500631  0.06058093  0.87693100    -0.20800
C882        C  0.84377742  0.06525894  0.89620860    -0.07400
C883        C  0.88783735  0.06740146  0.89748878     0.13500
C884        C  0.91176562  0.06682458  0.87942609    -0.20900
C885        C  0.89280813  0.06511172  0.86012991    -0.07400
C886        C  0.84893726  0.06093468  0.85886214     0.13500
C887        C  0.82731929  0.05580492  0.83850569    -0.24200
H888        H  0.79135902  0.05809808  0.87597773     0.14700
H889        H  0.94542830  0.06919087  0.88034260     0.14800
C890        C  0.90989756  0.06924769  0.91784514    -0.24200
H891        H  0.79322100  0.05049675  0.84038374     0.05000
H892        H  0.84003351  0.02369501  0.83011620     0.08200
H893        H  0.83202388  0.08916221  0.82921854     0.08200
H894        H  0.90029534  0.03768858  0.92736145     0.08200
H895        H  0.90229916  0.10374531  0.92599870     0.08200
H896        H  0.94429225  0.06769301  0.91597674     0.05000
C897        C  0.81466355  0.22993856  0.75888027    -0.20800
C898        C  0.79198747  0.20694661  0.74325438    -0.07400
C899        C  0.79739986  0.15599860  0.74021884     0.13500
C900        C  0.82520865  0.13004585  0.75282434    -0.20900
C901        C  0.84842080  0.15325477  0.76832014    -0.07400
C902        C  0.84272582  0.20435307  0.77131660     0.13500
C903        C  0.86596997  0.23322181  0.78736907    -0.24200
H904        H  0.81086928  0.26887926  0.76126185     0.14700
H905        H  0.82947709  0.09128104  0.75017590     0.14800
C906        C  0.77392768  0.12824277  0.72395444    -0.24200
H907        H  0.85581379  0.27199808  0.78794269     0.05000
H908        H  0.89982692  0.23337303  0.78389597     0.08200
H909        H  0.86022204  0.21741096  0.80273527     0.08200
H910        H  0.78266307  0.14191619  0.70856236     0.08200
H911        H  0.73986211  0.13249417  0.72639333     0.08200
H912        H  0.78116459  0.08858065  0.72426714     0.05000
C913        C  0.29011580  0.59383769  0.51125794    -0.20800
C914        C  0.29055669  0.54285738  0.50865391    -0.07400
C915        C  0.31786782  0.52235126  0.49386676     0.13500
C916        C  0.34425191  0.55302752  0.48255480    -0.20900
C917        C  0.34476938  0.60405863  0.48545061    -0.07400
C918        C  0.31656648  0.62467252  0.49992932     0.13500
C919        C  0.31403027  0.67887535  0.50387690    -0.24200
H920        H  0.26875832  0.60982703  0.52229495     0.14700
H921        H  0.36557298  0.53645574  0.47166882     0.14800
C922        C  0.32066618  0.46801833  0.49027619    -0.24200
H923        H  0.28898828  0.68824611  0.51499936     0.05000
H924        H  0.30709683  0.69830988  0.48939098     0.08200
H925        H  0.34381097  0.69218037  0.51042310     0.08200
H926        H  0.29095623  0.45449861  0.48376818     0.08200
H927        H  0.32741867  0.44907730  0.50489895     0.08200
H928        H  0.34581109  0.45833298  0.47926058     0.05000
C929        C  0.33225094  0.35216218  0.58173620    -0.20800
C930        C  0.32534733  0.40259193  0.57979415    -0.07400
C931        C  0.36029113  0.43436355  0.58047006     0.13500
C932        C  0.40070964  0.41454997  0.58087559    -0.20900
C933        C  0.40759502  0.36396316  0.58017867    -0.07400
C934        C  0.37274270  0.33236732  0.58181350     0.13500
C935        C  0.37755508  0.27772486  0.58343461    -0.24200
H936        H  0.30581102  0.32762574  0.58184999     0.14700
H937        H  0.42717458  0.43900918  0.58028217     0.14800
C938        C  0.35583670  0.48922152  0.58034534    -0.24200
H939        H  0.34733093  0.25963251  0.58669810     0.05000
H940        H  0.39920735  0.26872369  0.59611217     0.08200
H941        H  0.38941834  0.26221242  0.56882967     0.08200
H942        H  0.33415673  0.50098601  0.59269941     0.08200
H943        H  0.34429359  0.50180694  0.56526463     0.08200
H944        H  0.38613963  0.50768249  0.58299906     0.05000
C945        C  0.03286630  0.27375307  0.75553880    -0.20800
C946        C  0.99874040  0.29520265  0.74549160    -0.07400
C947        C  0.96163048  0.26839645  0.74289436     0.13500
C948        C  0.95994607  0.22049872  0.75008720    -0.20900
C949        C  0.99370928  0.19935747  0.76048528    -0.07400
C950        C  0.03085321  0.22606496  0.76309029     0.13500
C951        C  0.06889729  0.20387646  0.77292577    -0.24200
H952        H  0.06181802  0.29385045  0.75687351     0.14700
H953        H  0.93104184  0.20039048  0.74849884     0.14800
C954        C  0.92276352  0.28952111  0.73340355    -0.24200
H955        H  0.09594342  0.22909606  0.77247609     0.05000
H956        H  0.07780052  0.16990261  0.76466659     0.08200
H957        H  0.06265981  0.19531904  0.78918950     0.08200
H958        H  0.91531497  0.26929936  0.71912361     0.08200
H959        H  0.92546924  0.32887382  0.72982591     0.08200
H960        H  0.89627174  0.28572513  0.74425124     0.05000
C961        C  0.13412859  0.43710699  0.64744981    -0.20800
C962        C  0.09055451  0.43773238  0.64533510    -0.07400
C963        C  0.07304869  0.44098147  0.62554566     0.13500
C964        C  0.09963226  0.44240132  0.60840740    -0.20900
C965        C  0.14320537  0.44145848  0.61055776    -0.07400
C966        C  0.16066173  0.43913216  0.63033787     0.13500
C967        C  0.20711815  0.43625214  0.63341585    -0.24200
H968        H  0.14750422  0.43445906  0.66263326     0.14700
H969        H  0.08634673  0.44366665  0.59317024     0.14800
C970        C  0.02655188  0.44062175  0.62233525    -0.24200
H971        H  0.21532971  0.43266352  0.64984958     0.05000
H972        H  0.22211794  0.46987732  0.62755377     0.08200
H973        H  0.21988624  0.40400603  0.62514229     0.08200
H974        H  0.01228893  0.47334398  0.62959302     0.08200
H975        H  0.01294460  0.40716770  0.62915295     0.08200
H976        H  0.01839802  0.44112562  0.60582068     0.05000
C977        C  0.94375415  0.58407719  0.74440977    -0.20800
C978        C  0.94466196  0.53352404  0.74799786    -0.07400
C979        C  0.91792801  0.51400388  0.76313552     0.13500
C980        C  0.89094786  0.54537608  0.77394599    -0.20900
C981        C  0.88925645  0.59595793  0.77005210    -0.07400
C982        C  0.91684379  0.61553959  0.75518878     0.13500
C983        C  0.91814358  0.66921992  0.75013347    -0.24200
H984        H  0.96412387  0.59928861  0.73284042     0.14700
H985        H  0.86992837  0.52965749  0.78510498     0.14800
C986        C  0.91600318  0.45998207  0.76741314    -0.24200
H987        H  0.94313144  0.67778941  0.73891950     0.05000
H988        H  0.92441326  0.69079684  0.76421268     0.08200
H989        H  0.88819375  0.68081011  0.74319619     0.08200
H990        H  0.89131601  0.45103267  0.77873085     0.08200
H991        H  0.94609819  0.44721821  0.77380862     0.08200
H992        H  0.90898509  0.43971965  0.75307530     0.05000
C993        C  0.90440585  0.33973645  0.67815857    -0.20800
C994        C  0.91050288  0.39042681  0.67771160    -0.07400
C995        C  0.87539119  0.42128607  0.67503155     0.13500
C996        C  0.83532300  0.40078621  0.67422640    -0.20900
C997        C  0.82885552  0.35038985  0.67662905    -0.07400
C998        C  0.86429365  0.31925349  0.67791548     0.13500
C999        C  0.86072044  0.26447501  0.67952553    -0.24200
H1000       H  0.93114341  0.31593619  0.68004452     0.14700
H1001       H  0.80866169  0.42490222  0.67294224     0.14800
C1002       C  0.87945598  0.47594554  0.67321436    -0.24200
H1003       H  0.89167072  0.24629605  0.67875229     0.05000
H1004       H  0.84167891  0.25010992  0.66668815     0.08200
H1005       H  0.84653452  0.25428183  0.69441403     0.08200
H1006       H  0.90196554  0.48498778  0.66086988     0.08200
H1007       H  0.88993863  0.49192331  0.68795089     0.08200
H1008       H  0.84923624  0.49350845  0.66939711     0.05000
C1009       C  0.34331415  0.85713961  0.27541132    -0.20800
C1010       C  0.35455585  0.82229338  0.29011196    -0.07400
C1011       C  0.38605767  0.83311842  0.30445806     0.13500
C1012       C  0.40427997  0.87930589  0.30425750    -0.20900
C1013       C  0.39211220  0.91485218  0.29004679    -0.07400
C1014       C  0.36169997  0.90348233  0.27518786     0.13500
C1015       C  0.34715678  0.94042642  0.25971392    -0.24200
H1016       H  0.31881380  0.84872871  0.26455771     0.14700
H1017       H  0.42856280  0.88762144  0.31524255     0.14800
C1018       C  0.40169564  0.79581439  0.31953458    -0.24200
H1019       H  0.32134642  0.92602288  0.25015367     0.05000
H1020       H  0.37313377  0.95010559  0.24926546     0.08200
H1021       H  0.33569947  0.97373861  0.26769533     0.08200
H1022       H  0.41266395  0.76305583  0.31104995     0.08200
H1023       H  0.37678475  0.78561283  0.33049422     0.08200
H1024       H  0.42827163  0.80987241  0.32866739     0.05000
C1025       C  0.33089156  0.13061856  0.25083020    -0.20800
C1026       C  0.34320617  0.14645335  0.27035770    -0.07400
C1027       C  0.32618793  0.19042687  0.27823063     0.13500
C1028       C  0.29966875  0.21864226  0.26588243    -0.20900
C1029       C  0.28943236  0.20448139  0.24576372    -0.07400
C1030       C  0.30456086  0.15877393  0.23840694     0.13500
C1031       C  0.29411791  0.13907294  0.21742999    -0.24200
H1032       H  0.34372809  0.09690687  0.24473704     0.14700
H1033       H  0.28729391  0.25252644  0.27201319     0.14800
C1034       C  0.33517381  0.20769775  0.29972037    -0.24200
H1035       H  0.30906706  0.10311726  0.21444875     0.05000
H1036       H  0.30539900  0.16455157  0.20547131     0.08200
H1037       H  0.25993681  0.13377425  0.21607455     0.08200
H1038       H  0.36831865  0.21842820  0.30120237     0.08200
H1039       H  0.32783600  0.17825069  0.31077861     0.08200
H1040       H  0.31606838  0.24011129  0.30391339     0.05000
C1041       C  0.37332944  0.91786587  0.44744334    -0.20800
C1042       C  0.34904842  0.93011957  0.46454141    -0.07400
C1043       C  0.34560313  0.89684810  0.48097641     0.13500
C1044       C  0.36572691  0.85154568  0.47947261    -0.20900
C1045       C  0.38874779  0.83859512  0.46197398    -0.07400
C1046       C  0.39315706  0.87272691  0.44582080     0.13500
C1047       C  0.41906863  0.86297219  0.42687841    -0.24200
H1048       H  0.37624946  0.94370614  0.43498719     0.14700
H1049       H  0.36286026  0.82571276  0.49192455     0.14800
C1050       C  0.31971867  0.90769954  0.49976030    -0.24200
H1051       H  0.42035804  0.89517914  0.41661724     0.05000
H1052       H  0.40532670  0.83259350  0.41787404     0.08200
H1053       H  0.45159148  0.85398961  0.43128174     0.08200
H1054       H  0.28693990  0.91493657  0.49530130     0.08200
H1055       H  0.33256493  0.93985786  0.50795396     0.08200
H1056       H  0.31964487  0.87664716  0.51064156     0.05000
C1057       C  0.24455068  0.25433363  0.48046468    -0.20800
C1058       C  0.24467025  0.21233912  0.49275548    -0.07400
C1059       C  0.24202245  0.21699313  0.51423976     0.13500
C1060       C  0.23971416  0.26363160  0.52282231    -0.20900
C1061       C  0.23971516  0.30561817  0.51053983    -0.07400
C1062       C  0.24205356  0.30098303  0.48905281     0.13500
C1063       C  0.24324841  0.34468868  0.47509702    -0.24200
H1064       H  0.24762688  0.25077916  0.46399158     0.14700
H1065       H  0.23667590  0.26719719  0.53929789     0.14800
C1066       C  0.24025761  0.17332732  0.52821380    -0.24200
H1067       H  0.24852971  0.33391079  0.45888312     0.05000
H1068       H  0.26905868  0.36919610  0.47972347     0.08200
H1069       H  0.21319453  0.36471720  0.47572866     0.08200
H1070       H  0.27027865  0.15320364  0.52785380     0.08200
H1071       H  0.21453643  0.14887069  0.52339969     0.08200
H1072       H  0.23445179  0.18417326  0.54437736     0.05000
C1073       C  0.32516218  0.06279204  0.37541132    -0.20800
C1074       C  0.34350680  0.06609817  0.39480309    -0.07400
C1075       C  0.38750422  0.06410683  0.39649742     0.13500
C1076       C  0.41204021  0.06124105  0.37866306    -0.20900
C1077       C  0.39373119  0.06147955  0.35921343    -0.07400
C1078       C  0.34967960  0.06106206  0.35756985     0.13500
C1079       C  0.32829662  0.05822813  0.33705471    -0.24200
H1080       H  0.29148117  0.06349552  0.37418044     0.14700
H1081       H  0.44572756  0.06095669  0.37988218     0.14800
C1082       C  0.40875056  0.06443523  0.41706682    -0.24200
H1083       H  0.29394204  0.05521004  0.33871970     0.05000
H1084       H  0.33954534  0.02563007  0.32850034     0.08200
H1085       H  0.33471669  0.09155549  0.32801388     0.08200
H1086       H  0.39664985  0.03411669  0.42659723     0.08200
H1087       H  0.40311825  0.09971030  0.42501382     0.08200
H1088       H  0.44300696  0.05967860  0.41555656     0.05000
C1089       C  0.40276043  0.14518267  0.50353633    -0.20800
C1090       C  0.39034763  0.16137330  0.48410547    -0.07400
C1091       C  0.40596806  0.20646834  0.47687049     0.13500
C1092       C  0.43238980  0.23433922  0.48943629    -0.20900
C1093       C  0.44348210  0.21917810  0.50927047    -0.07400
C1094       C  0.42860153  0.17329052  0.51626723     0.13500
C1095       C  0.43865912  0.15343585  0.53721251    -0.24200
H1096       H  0.39060064  0.11096254  0.50927400     0.14700
H1097       H  0.44402231  0.26878661  0.48370139     0.14800
C1098       C  0.39537636  0.22561909  0.45589450    -0.24200
H1099       H  0.42349534  0.11766624  0.54001255     0.05000
H1100       H  0.42731514  0.17907012  0.54921209     0.08200
H1101       H  0.47275879  0.14770291  0.53872328     0.08200
H1102       H  0.36188083  0.23551713  0.45512102     0.08200
H1103       H  0.40281388  0.19757210  0.44411120     0.08200
H1104       H  0.41336805  0.25901557  0.45215552     0.05000
C1105       C  0.51810182  0.23248818  0.26868348    -0.20800
C1106       C  0.49025976  0.19988341  0.25928993    -0.07400
C1107       C  0.46754693  0.21552342  0.24189711     0.13500
C1108       C  0.47272859  0.26326417  0.23486382    -0.20900
C1109       C  0.50022619  0.29607794  0.24437552    -0.07400
C1110       C  0.52345612  0.28018114  0.26157819     0.13500
C1111       C  0.55444497  0.31226566  0.27256873    -0.24200
H1112       H  0.53562534  0.22078455  0.28196122     0.14700
H1113       H  0.45519540  0.27488207  0.22157871     0.14800
C1114       C  0.43718286  0.18313010  0.23065012    -0.24200
H1115       H  0.56909382  0.29338381  0.28575111     0.05000
H1116       H  0.53855185  0.34533191  0.27865090     0.08200
H1117       H  0.57993567  0.32274881  0.26198389     0.08200
H1118       H  0.41124308  0.17278908  0.24097898     0.08200
H1119       H  0.45345121  0.15000657  0.22486409     0.08200
H1120       H  0.42311163  0.20169092  0.21723945     0.05000
C1121       C  0.42181814  0.51157837  0.26059181    -0.20800
C1122       C  0.44779296  0.53541348  0.24657212    -0.07400
C1123       C  0.44607145  0.58702122  0.24531885     0.13500
C1124       C  0.41700702  0.61282635  0.25732334    -0.20900
C1125       C  0.38924682  0.58886805  0.27059549    -0.07400
C1126       C  0.39258778  0.53722113  0.27256117     0.13500
C1127       C  0.36548466  0.50799965  0.28689274    -0.24200
H1128       H  0.42363780  0.47217277  0.26180844     0.14700
H1129       H  0.41533615  0.65216588  0.25586190     0.14800
C1130       C  0.47516865  0.61558358  0.23171108    -0.24200
H1131       H  0.37399103  0.46866991  0.28684979     0.05000
H1132       H  0.33237947  0.51037303  0.28215755     0.08200
H1133       H  0.36917668  0.52166708  0.30280693     0.08200
H1134       H  0.46877339  0.60729924  0.21538286     0.08200
H1135       H  0.50802542  0.60634564  0.23538476     0.08200
H1136       H  0.47125952  0.65558956  0.23380778     0.05000
C1137       C  0.40318903  0.34183769  0.17531737    -0.20800
C1138       C  0.40949529  0.39246456  0.17693894    -0.07400
C1139       C  0.37405064  0.42367779  0.17649077     0.13500
C1140       C  0.33385563  0.40331142  0.17620235    -0.20900
C1141       C  0.32757222  0.35261484  0.17672101    -0.07400
C1142       C  0.36295569  0.32145530  0.17536984     0.13500
C1143       C  0.35904517  0.26662802  0.17422617    -0.24200
H1144       H  0.42997254  0.31765306  0.17524023     0.14700
H1145       H  0.30707453  0.42745993  0.17687015     0.14800
C1146       C  0.37779272  0.47856629  0.17660429    -0.24200
H1147       H  0.38961253  0.24875239  0.17131406     0.05000
H1148       H  0.33783795  0.25634061  0.16152301     0.08200
H1149       H  0.34709084  0.25203686  0.18892238     0.08200
H1150       H  0.39875316  0.49037957  0.16402426     0.08200
H1151       H  0.38991832  0.49147963  0.19155826     0.08200
H1152       H  0.34714258  0.49664234  0.17430561     0.05000
C1153       C  0.70885176  0.27647901  0.00033623    -0.20800
C1154       C  0.74197074  0.29524784  0.01199521    -0.07400
C1155       C  0.77620367  0.26487785  0.01671767     0.13500
C1156       C  0.77725250  0.21737687  0.00881333    -0.20900
C1157       C  0.74456759  0.19897234  0.99675732    -0.07400
C1158       C  0.70929485  0.22846560  0.99297362     0.13500
C1159       C  0.67130639  0.20916115  0.98208710    -0.24200
H1160       H  0.68163042  0.29898622  0.99756957     0.14700
H1161       H  0.80443867  0.19487077  0.01166448     0.14800
C1162       C  0.81198496  0.28226863  0.02974481    -0.24200
H1163       H  0.64548640  0.23627029  0.98200656     0.05000
H1164       H  0.65991519  0.17584988  0.98991622     0.08200
H1165       H  0.67869997  0.20038790  0.96597055     0.08200
H1166       H  0.80126214  0.28832695  0.04569148     0.08200
H1167       H  0.82471993  0.31674711  0.02346298     0.08200
H1168       H  0.83763705  0.25500818  0.03031076     0.05000
C1169       C  0.63061227  0.45443664  0.14542017    -0.20800
C1170       C  0.59003800  0.43605305  0.14369694    -0.07400
C1171       C  0.57553134  0.41945932  0.12461270     0.13500
C1172       C  0.60228670  0.42087909  0.10762655    -0.20900
C1173       C  0.64344363  0.43834810  0.10923024    -0.07400
C1174       C  0.65750670  0.45622828  0.12840334     0.13500
C1175       C  0.70101103  0.47556346  0.13134467    -0.24200
H1176       H  0.64143671  0.46684104  0.16026194     0.14700
H1177       H  0.59106549  0.40748171  0.09301672     0.14800
C1178       C  0.53239883  0.39851355  0.12236039    -0.24200
H1179       H  0.70686221  0.48621499  0.14750833     0.05000
H1180       H  0.70566442  0.50850220  0.12177996     0.08200
H1181       H  0.72417952  0.44710739  0.12706219     0.08200
H1182       H  0.50879562  0.42652836  0.12655877     0.08200
H1183       H  0.52883646  0.36647062  0.13257163     0.08200
H1184       H  0.52619987  0.38640753  0.10641049     0.05000
C1185       C  0.78550530  0.58760150  0.00600311    -0.20800
C1186       C  0.79267045  0.53712312  0.00788821    -0.07400
C1187       C  0.82683253  0.51599374  0.99742684     0.13500
C1188       C  0.85229296  0.54546613  0.98513320    -0.20900
C1189       C  0.84542708  0.59606142  0.98308564    -0.07400
C1190       C  0.81144294  0.61739034  0.99384835     0.13500
C1191       C  0.80184028  0.67115814  0.99249711    -0.24200
H1192       H  0.75919702  0.60378316  0.01398932     0.14700
H1193       H  0.87882146  0.52877959  0.97762843     0.14800
C1194       C  0.83798966  0.46278730  0.99992017    -0.24200
H1195       H  0.77263066  0.68072261  0.00076837     0.05000
H1196       H  0.79797523  0.68180197  0.97622747     0.08200
H1197       H  0.82734356  0.69268894  0.99952723     0.08200
H1198       H  0.81309681  0.43936946  0.99345694     0.08200
H1199       H  0.84219395  0.45434540  0.01640702     0.08200
H1200       H  0.86746615  0.45330359  0.99186091     0.05000
C1201       C  0.83326191  0.34783360  0.08068128    -0.20800
C1202       C  0.82743103  0.39843049  0.07867472    -0.07400
C1203       C  0.86304628  0.42911759  0.07887595     0.13500
C1204       C  0.90302430  0.40805709  0.07946521    -0.20900
C1205       C  0.90878537  0.35720787  0.07925061    -0.07400
C1206       C  0.87320426  0.32671966  0.08056732     0.13500
C1207       C  0.87659621  0.27183865  0.08149994    -0.24200
H1208       H  0.80629414  0.32412397  0.08099056     0.14700
H1209       H  0.93005033  0.43164698  0.07871207     0.14800
C1210       C  0.85971318  0.48403013  0.07814517    -0.24200
H1211       H  0.84585401  0.25451170  0.08429591     0.05000
H1212       H  0.89767320  0.26110381  0.09416804     0.08200
H1213       H  0.88846018  0.25713271  0.06674329     0.08200
H1214       H  0.83883677  0.49721816  0.09058187     0.08200
H1215       H  0.84766219  0.49588230  0.06305343     0.08200
H1216       H  0.89050571  0.50178476  0.08023713     0.05000
C1217       C  0.13274388  0.45855652  0.01977182    -0.20800
C1218       C  0.13837975  0.40751723  0.02077510    -0.07400
C1219       C  0.17228778  0.38634356  0.00988827     0.13500
C1220       C  0.19819375  0.41627316  0.99790611    -0.20900
C1221       C  0.19166785  0.46686126  0.99654131    -0.07400
C1222       C  0.15878089  0.48836740  0.00784953     0.13500
C1223       C  0.14969693  0.54234714  0.00667995    -0.24200
H1224       H  0.10676214  0.47532914  0.02778731     0.14700
H1225       H  0.22399157  0.40001660  0.98954192     0.14800
C1226       C  0.18195114  0.33250063  0.01085164    -0.24200
H1227       H  0.12134555  0.55246319  0.01554307     0.05000
H1228       H  0.14457579  0.55305142  0.99049829     0.08200
H1229       H  0.17612999  0.56345115  0.01307789     0.08200
H1230       H  0.15685236  0.31119575  0.00337094     0.08200
H1231       H  0.18531024  0.32107262  0.02705594     0.08200
H1232       H  0.21149898  0.32339256  0.00278201     0.05000
C1233       C  0.12735716  0.57061961  0.92079857    -0.20800
C1234       C  0.16014819  0.60446156  0.92175981    -0.07400
C1235       C  0.15055407  0.65464922  0.91925346     0.13500
C1236       C  0.10852264  0.66966369  0.91914107    -0.20900
C1237       C  0.07558297  0.63599847  0.92073934    -0.07400
C1238       C  0.08544929  0.58558069  0.91997298     0.13500
C1239       C  0.05230405  0.54704808  0.91969453    -0.24200
H1240       H  0.13443740  0.53198459  0.92172642     0.14700
H1241       H  0.10138724  0.70833461  0.91872330     0.14800
C1242       C  0.18396776  0.69297276  0.91736708    -0.24200
H1243       H  0.06559897  0.50958816  0.91910466     0.05000
H1244       H  0.03202202  0.55182540  0.90610624     0.08200
H1245       H  0.03379780  0.55030825  0.93384687     0.08200
H1246       H  0.20386664  0.68481409  0.90384443     0.08200
H1247       H  0.20345715  0.69401176  0.93132852     0.08200
H1248       H  0.17054046  0.73001562  0.91525790     0.05000
C1249       C  0.35052646  0.56030152  0.85686635    -0.20800
C1250       C  0.39401209  0.55732191  0.85918028    -0.07400
C1251       C  0.41092548  0.55138554  0.87898754     0.13500
C1252       C  0.38403643  0.55121925  0.89599800    -0.20900
C1253       C  0.34069517  0.55546300  0.89367516    -0.07400
C1254       C  0.32362467  0.55892666  0.87384862     0.13500
C1255       C  0.27730328  0.56355216  0.87060886    -0.24200
H1256       H  0.33755724  0.56437703  0.84165710     0.14700
H1257       H  0.39692956  0.54853201  0.91127927     0.14800
C1258       C  0.45723508  0.54748351  0.88240728    -0.24200
H1259       H  0.26943888  0.56748123  0.85414822     0.05000
H1260       H  0.26524450  0.59618374  0.87886919     0.08200
H1261       H  0.26135303  0.53044508  0.87639773     0.08200
H1262       H  0.47310338  0.58009254  0.87606953     0.08200
H1263       H  0.46951151  0.51407342  0.87482830     0.08200
H1264       H  0.46495694  0.54509860  0.89894054     0.05000
C1265       C  0.53848498  0.41296773  0.75763372    -0.20800
C1266       C  0.54182868  0.46404512  0.75712668    -0.07400
C1267       C  0.57331844  0.48545576  0.74499608     0.13500
C1268       C  0.60091277  0.45521563  0.73402231    -0.20900
C1269       C  0.59814041  0.40384624  0.73468218    -0.07400
C1270       C  0.56576118  0.38258260  0.74649912     0.13500
C1271       C  0.55924968  0.32813704  0.74760439    -0.24200
H1272       H  0.51420692  0.39658634  0.76686781     0.14700
H1273       H  0.62566140  0.47216949  0.72529020     0.14800
C1274       C  0.57927661  0.54003536  0.74420128    -0.24200
H1275       H  0.53078172  0.31870201  0.75643966     0.05000
H1276       H  0.58598971  0.31051020  0.75540136     0.08200
H1277       H  0.55559707  0.31287895  0.73193740     0.08200
H1278       H  0.58319815  0.55481214  0.75993324     0.08200
H1279       H  0.55193544  0.55754355  0.73687468     0.08200
H1280       H  0.60729600  0.55017215  0.73516485     0.05000
C1281       C  0.65119079  0.59448709  0.82859719    -0.20800
C1282       C  0.65649040  0.64526752  0.82740770    -0.07400
C1283       C  0.62070558  0.67571779  0.82849195     0.13500
C1284       C  0.58095209  0.65442432  0.82898617    -0.20900
C1285       C  0.57561296  0.60364239  0.82765768    -0.07400
C1286       C  0.61143015  0.57317411  0.82831914     0.13500
C1287       C  0.60852316  0.51821051  0.82833640    -0.24200
H1288       H  0.67839514  0.57097986  0.82829328     0.14700
H1289       H  0.55376699  0.67797391  0.82893612     0.14800
C1290       C  0.62366310  0.73066421  0.82878137    -0.24200
H1291       H  0.63942897  0.50082966  0.83074604     0.05000
H1292       H  0.59676157  0.50483147  0.81338286     0.08200
H1293       H  0.58759234  0.50613596  0.84088296     0.08200
H1294       H  0.63505636  0.74420042  0.81380228     0.08200
H1295       H  0.64493488  0.74255891  0.84120658     0.08200
H1296       H  0.59284003  0.74804594  0.83156440     0.05000
C1297       C  0.61196246  0.10114034  0.52599694    -0.20800
C1298       C  0.63873150  0.09102001  0.54237093    -0.07400
C1299       C  0.64755711  0.12802476  0.55697751     0.13500
C1300       C  0.62761311  0.17309449  0.55531743    -0.20900
C1301       C  0.59939261  0.18244868  0.53952501    -0.07400
C1302       C  0.59198004  0.14642868  0.52437400     0.13500
C1303       C  0.56194757  0.15440222  0.50697037    -0.24200
H1304       H  0.60599543  0.07308326  0.51463071     0.14700
H1305       H  0.63351354  0.20115217  0.56671138     0.14800
C1306       C  0.67840456  0.12123815  0.57417821    -0.24200
H1307       H  0.55915460  0.12151170  0.49707434     0.05000
H1308       H  0.57297539  0.18480834  0.49719453     0.08200
H1309       H  0.53048050  0.16301633  0.51308043     0.08200
H1310       H  0.70915146  0.10998266  0.56789807     0.08200
H1311       H  0.66686184  0.09337746  0.58507730     0.08200
H1312       H  0.68315983  0.15545022  0.58304868     0.05000
C1313       C  0.57118192  0.87530484  0.50472698    -0.20800
C1314       C  0.59480599  0.85329067  0.52032100    -0.07400
C1315       C  0.58903767  0.80247136  0.52391096     0.13500
C1316       C  0.56135709  0.77570805  0.51156348    -0.20900
C1317       C  0.53931664  0.79728863  0.49539615    -0.07400
C1318       C  0.54382090  0.84826312  0.49223518     0.13500
C1319       C  0.51969556  0.87499634  0.47594282    -0.24200
H1320       H  0.57507099  0.91391168  0.50177528     0.14700
H1321       H  0.55769455  0.73696370  0.51429757     0.14800
C1322       C  0.61208622  0.77515487  0.54043140    -0.24200
H1323       H  0.52564180  0.91490816  0.47637047     0.05000
H1324       H  0.48573360  0.86945672  0.47825709     0.08200
H1325       H  0.52907114  0.86164243  0.46054124     0.08200
H1326       H  0.60668338  0.79300983  0.55549872     0.08200
H1327       H  0.64591157  0.77387301  0.53685776     0.08200
H1328       H  0.60144069  0.73673904  0.54173158     0.05000
C1329       C  0.58112958  0.11620069  0.69863947    -0.20800
C1330       C  0.59164499  0.08117499  0.71345233    -0.07400
C1331       C  0.62069313  0.09318862  0.72888042     0.13500
C1332       C  0.64005295  0.13893815  0.72836523    -0.20900
C1333       C  0.63112598  0.17275517  0.71287313    -0.07400
C1334       C  0.60033340  0.16189066  0.69816826     0.13500
C1335       C  0.58680271  0.19845141  0.68225429    -0.24200
H1336       H  0.55766447  0.10776853  0.68726180     0.14700
H1337       H  0.66354042  0.14762244  0.73970216     0.14800
C1338       C  0.63279056  0.05763055  0.74538657    -0.24200
H1339       H  0.55991022  0.18496815  0.67319320     0.05000
H1340       H  0.61251799  0.20569831  0.67131816     0.08200
H1341       H  0.57719879  0.23305179  0.68984940     0.08200
H1342       H  0.64469936  0.02343820  0.73830781     0.08200
H1343       H  0.60546093  0.04952557  0.75523283     0.08200
H1344       H  0.65763416  0.07247029  0.75543421     0.05000
C1345       C  0.52860533  0.77492594  0.75346552    -0.20800
C1346       C  0.49519165  0.79471231  0.74229228    -0.07400
C1347       C  0.45791772  0.76801327  0.74025288     0.13500
C1348       C  0.45541109  0.72169877  0.74910212    -0.20900
C1349       C  0.48894109  0.70174908  0.76012446    -0.07400
C1350       C  0.52592251  0.72882561  0.76251047     0.13500
C1351       C  0.56287920  0.70902177  0.77406248    -0.24200
H1352       H  0.55741329  0.79527589  0.75477813     0.14700
H1353       H  0.42651612  0.70144584  0.74789389     0.14800
C1354       C  0.42028048  0.78871639  0.72951746    -0.24200
H1355       H  0.58993231  0.73417289  0.77334497     0.05000
H1356       H  0.57256361  0.67336150  0.76742541     0.08200
H1357       H  0.55481463  0.70433791  0.79044090     0.08200
H1358       H  0.42698990  0.79380348  0.71300709     0.08200
H1359       H  0.41159412  0.82432022  0.73653342     0.08200
H1360       H  0.39292960  0.76408714  0.73073208     0.05000
C1361       C  0.63109785  0.94412785  0.64657100    -0.20800
C1362       C  0.58779075  0.94303940  0.64347516    -0.07400
C1363       C  0.57191047  0.94591212  0.62338585     0.13500
C1364       C  0.59988871  0.94651748  0.60682778    -0.20900
C1365       C  0.64322027  0.94567145  0.60990836    -0.07400
C1366       C  0.65905163  0.94612064  0.63004056     0.13500
C1367       C  0.70522753  0.94634231  0.63416291    -0.24200
H1368       H  0.64311392  0.94258403  0.66205577     0.14700
H1369       H  0.58790019  0.94682074  0.59132444     0.14800
C1370       C  0.52572372  0.94601406  0.61928158    -0.24200
H1371       H  0.71203888  0.94493503  0.65081401     0.05000
H1372       H  0.71926342  0.98027476  0.62802807     0.08200
H1373       H  0.72013541  0.91415810  0.62676716     0.08200
H1374       H  0.51118476  0.97884951  0.62632450     0.08200
H1375       H  0.51131769  0.91268446  0.62579675     0.08200
H1376       H  0.51890361  0.94674775  0.60262254     0.05000
C1377       C  0.63662728  0.79254557  0.72978761    -0.20800
C1378       C  0.63905823  0.84393218  0.73106906    -0.07400
C1379       C  0.66999913  0.86475708  0.74385518     0.13500
C1380       C  0.69531106  0.83405868  0.75575251    -0.20900
C1381       C  0.69203828  0.78296683  0.75483808    -0.07400
C1382       C  0.66263853  0.76194368  0.74136767     0.13500
C1383       C  0.65704288  0.70739413  0.73973805    -0.24200
H1384       H  0.61318990  0.77585231  0.72016310     0.14700
H1385       H  0.71790356  0.85033180  0.76600823     0.14800
C1386       C  0.67692574  0.91908574  0.74520835    -0.24200
H1387       H  0.63045455  0.69757183  0.72969182     0.05000
H1388       H  0.65091452  0.69180768  0.75511413     0.08200
H1389       H  0.68547074  0.69037740  0.73311299     0.08200
H1390       H  0.64972233  0.93707959  0.75256701     0.08200
H1391       H  0.68206623  0.93416485  0.72965192     0.08200
H1392       H  0.70472232  0.92818139  0.75456867     0.05000
C1393       C  0.72098196  0.74361437  0.48587902    -0.20800
C1394       C  0.74864481  0.71085719  0.49521788    -0.07400
C1395       C  0.77241160  0.72679983  0.51227647     0.13500
C1396       C  0.76790855  0.77488662  0.51918146    -0.20900
C1397       C  0.74019908  0.80765328  0.50982775    -0.07400
C1398       C  0.71647065  0.79165077  0.49278065     0.13500
C1399       C  0.68573737  0.82393872  0.48173905    -0.24200
H1400       H  0.70285840  0.73170821  0.47280503     0.14700
H1401       H  0.78593274  0.78677472  0.53229745     0.14800
C1402       C  0.80298371  0.69434227  0.52336195    -0.24200
H1403       H  0.67083738  0.80492492  0.46861863     0.05000
H1404       H  0.70191367  0.85649525  0.47556016     0.08200
H1405       H  0.66038535  0.83522148  0.49229099     0.08200
H1406       H  0.82832015  0.68278848  0.51283178     0.08200
H1407       H  0.78663160  0.66191843  0.52955767     0.08200
H1408       H  0.81791909  0.71333912  0.53648039     0.05000
C1409       C  0.69702105  0.42250793  0.49637420    -0.20800
C1410       C  0.69357371  0.47363442  0.49661505    -0.07400
C1411       C  0.66196489  0.49555616  0.50866761     0.13500
C1412       C  0.63435264  0.46584064  0.51975848    -0.20900
C1413       C  0.63730390  0.41444686  0.51940048    -0.07400
C1414       C  0.66995314  0.39268141  0.50778259     0.13500
C1415       C  0.67714600  0.33826200  0.50734840    -0.24200
H1416       H  0.72126198  0.40562551  0.48718027     0.14700
H1417       H  0.60943940  0.48319256  0.52835322     0.14800
C1418       C  0.65589594  0.55016862  0.50923882    -0.24200
H1419       H  0.70596972  0.32844011  0.49880406     0.05000
H1420       H  0.65083649  0.31964519  0.49961584     0.08200
H1421       H  0.68056452  0.32441659  0.52321228     0.08200
H1422       H  0.65213797  0.56429995  0.49343846     0.08200
H1423       H  0.68312093  0.56789097  0.51656870     0.08200
H1424       H  0.62775811  0.56074907  0.51816396     0.05000
C1425       C  0.65173397  0.66122281  0.42368899    -0.20800
C1426       C  0.65870592  0.61110709  0.42672492    -0.07400
C1427       C  0.62368456  0.57934132  0.42724889     0.13500
C1428       C  0.58332326  0.59905776  0.42629362    -0.20900
C1429       C  0.57646485  0.64958285  0.42578786    -0.07400
C1430       C  0.61124910  0.68098345  0.42344023     0.13500
C1431       C  0.60634488  0.73538553  0.42083004    -0.24200
H1432       H  0.67814302  0.68570270  0.42279892     0.14700
H1433       H  0.55682067  0.57479178  0.42746183     0.14800
C1434       C  0.62782562  0.52469779  0.42945553    -0.24200
H1435       H  0.63651443  0.75318892  0.41718638     0.05000
H1436       H  0.59456692  0.75235235  0.43516795     0.08200
H1437       H  0.58456562  0.74302402  0.40804834     0.08200
H1438       H  0.63994761  0.51546596  0.44486318     0.08200
H1439       H  0.64884896  0.50999273  0.41738467     0.08200
H1440       H  0.59733152  0.50596792  0.42788497     0.05000
C1441       C  0.90957031  0.56195717  0.37829176    -0.20800
C1442       C  0.89162185  0.56961310  0.35901126    -0.07400
C1443       C  0.84775757  0.57580580  0.35760388     0.13500
C1444       C  0.82325489  0.57434896  0.37547608    -0.20900
C1445       C  0.84155017  0.56932963  0.39478810    -0.07400
C1446       C  0.88523462  0.56287679  0.39622432     0.13500
C1447       C  0.90630438  0.55675901  0.41666196    -0.24200
H1448       H  0.94303540  0.55721281  0.37940886     0.14700
H1449       H  0.78981011  0.57951591  0.37447194     0.14800
C1450       C  0.82643429  0.58419047  0.33736756    -0.24200
H1451       H  0.94026883  0.54993524  0.41493615     0.05000
H1452       H  0.89252369  0.52534684  0.42489628     0.08200
H1453       H  0.90233871  0.59031028  0.42604416     0.08200
H1454       H  0.83523831  0.55506631  0.32636948     0.08200
H1455       H  0.83560258  0.62014164  0.33105543     0.08200
H1456       H  0.79196003  0.58415349  0.33894193     0.05000
C1457       C  0.04298728  0.41228943  0.26250886    -0.20800
C1458       C  0.04194573  0.46282887  0.25893420    -0.07400
C1459       C  0.06808947  0.48231333  0.24349151     0.13500
C1460       C  0.09438320  0.45095844  0.23231133    -0.20900
C1461       C  0.09633683  0.40043354  0.23614746    -0.07400
C1462       C  0.06974965  0.38089821  0.25150025     0.13500
C1463       C  0.06945962  0.32738281  0.25683636    -0.24200
H1464       H  0.02267081  0.39709194  0.27411968     0.14700
H1465       H  0.11462036  0.46667489  0.22080619     0.14800
C1466       C  0.07001293  0.53632501  0.23910157    -0.24200
H1467       H  0.04571863  0.31884897  0.26869190     0.05000
H1468       H  0.10021878  0.31641343  0.26307239     0.08200
H1469       H  0.06201967  0.30531973  0.24303437     0.08200
H1470       H  0.07742578  0.55671803  0.25335821     0.08200
H1471       H  0.03985886  0.54913941  0.23279124     0.08200
H1472       H  0.09446118  0.54513746  0.22763967     0.05000
C1473       C  0.15188872  0.59526220  0.33046350    -0.20800
C1474       C  0.15845865  0.64573428  0.32849717    -0.07400
C1475       C  0.12328424  0.67729495  0.32854369     0.13500
C1476       C  0.08305559  0.65721840  0.32896123    -0.20900
C1477       C  0.07660134  0.60653400  0.32854856    -0.07400
C1478       C  0.11167339  0.57514007  0.33014935     0.13500
C1479       C  0.10748767  0.52036520  0.33122075    -0.24200
H1480       H  0.17850345  0.57087210  0.33090097     0.14700
H1481       H  0.05640867  0.68151212  0.32819526     0.14800
C1482       C  0.12731284  0.73212414  0.32772933    -0.24200
H1483       H  0.13787355  0.50233244  0.33427570     0.05000
H1484       H  0.09597768  0.50568418  0.31643420     0.08200
H1485       H  0.08580668  0.51038075  0.34378977     0.08200
H1486       H  0.13992935  0.74352811  0.31266323     0.08200
H1487       H  0.14797344  0.74498826  0.34023480     0.08200
H1488       H  0.09669376  0.75061582  0.32964018     0.05000
C1489       C  0.08243284  0.11535696  0.20080017    -0.20800
C1490       C  0.09701745  0.07776759  0.21344038    -0.07400
C1491       C  0.13068025  0.08618860  0.22682209     0.13500
C1492       C  0.14932527  0.13234356  0.22699885    -0.20900
C1493       C  0.13536339  0.16942325  0.21389952    -0.07400
C1494       C  0.10134178  0.16110546  0.20075170     0.13500
C1495       C  0.08443078  0.20039832  0.18690782    -0.24200
H1496       H  0.05600714  0.10880999  0.19085052     0.14700
H1497       H  0.17601031  0.13894419  0.23677388     0.14800
C1498       C  0.14827488  0.04625000  0.24007833    -0.24200
H1499       H  0.05599499  0.18819254  0.17870841     0.05000
H1500       H  0.10790428  0.21029443  0.17515059     0.08200
H1501       H  0.07615973  0.23321746  0.19609948     0.08200
H1502       H  0.15772805  0.01469337  0.23038299     0.08200
H1503       H  0.12461069  0.03431649  0.25139645     0.08200
H1504       H  0.17610613  0.05873826  0.24869577     0.05000
C1505       C  0.96054895  0.71824299  0.24639820    -0.20800
C1506       C  0.99290457  0.70012304  0.25871436    -0.07400
C1507       C  0.02837638  0.72916214  0.26239440     0.13500
C1508       C  0.02996538  0.77601924  0.25403344    -0.20900
C1509       C  0.99707367  0.79460861  0.24216673    -0.07400
C1510       C  0.96182144  0.76529726  0.23830690     0.13500
C1511       C  0.92423888  0.78259804  0.22654692    -0.24200
H1512       H  0.93281546  0.69646782  0.24388945     0.14700
H1513       H  0.05772602  0.79784944  0.25634496     0.14800
C1514       C  0.06510283  0.71071060  0.27451609    -0.24200
H1515       H  0.89603074  0.77759641  0.23609066     0.05000
H1516       H  0.92067313  0.76033621  0.21243401     0.08200
H1517       H  0.92543378  0.82171306  0.22242004     0.08200
H1518       H  0.07631313  0.67558708  0.26795350     0.08200
H1519       H  0.05615000  0.70553276  0.29074556     0.08200
H1520       H  0.09149818  0.73688054  0.27426023     0.05000
C1521       C  0.15940746  0.86442867  0.25201612    -0.20800
C1522       C  0.14292215  0.84533099  0.23374215    -0.07400
C1523       C  0.15611110  0.79818341  0.22732103     0.13500
C1524       C  0.18318245  0.77096978  0.23978348    -0.20900
C1525       C  0.19795435  0.78894145  0.25862378    -0.07400
C1526       C  0.18655861  0.83724209  0.26449333     0.13500
C1527       C  0.20241476  0.86099023  0.28383450    -0.24200
H1528       H  0.14981280  0.90050211  0.25704217     0.14700
H1529       H  0.19235773  0.73473545  0.23478733     0.14800
C1530       C  0.14225529  0.77587233  0.20731764    -0.24200
H1531       H  0.19078381  0.89899843  0.28561626     0.05000
H1532       H  0.23698976  0.86260598  0.28349500     0.08200
H1533       H  0.19166235  0.84020079  0.29740041     0.08200
H1534       H  0.14884743  0.80139162  0.19455202     0.08200
H1535       H  0.10850852  0.76729836  0.20789314     0.08200
H1536       H  0.15887862  0.74112669  0.20396204     0.05000
C1537       C  0.08794020  0.13927005  0.02517645    -0.20800
C1538       C  0.10066817  0.17418074  0.03963427    -0.07400
C1539       C  0.13320296  0.16314162  0.05334550     0.13500
C1540       C  0.15113225  0.11667018  0.05276343    -0.20900
C1541       C  0.13735730  0.08089966  0.03889418    -0.07400
C1542       C  0.10582628  0.09253650  0.02464723     0.13500
C1543       C  0.08955042  0.05550265  0.00955776    -0.24200
H1544       H  0.06267046  0.14796093  0.01480925     0.14700
H1545       H  0.17626403  0.10823573  0.06324512     0.14800
C1546       C  0.14965040  0.20032051  0.06837196    -0.24200
H1547       H  0.06307517  0.07016333  0.00052334     0.05000
H1548       H  0.07842478  0.02276755  0.01787345     0.08200
H1549       H  0.11447271  0.04490674  0.99859680     0.08200
H1550       H  0.12545008  0.20946025  0.07991923     0.08200
H1551       H  0.15912118  0.23387457  0.06010821     0.08200
H1552       H  0.17725282  0.18642858  0.07678532     0.05000
C1553       C  0.20344895  0.77519657  0.99712654    -0.20800
C1554       C  0.23774306  0.79795719  0.00647795    -0.07400
C1555       C  0.27612725  0.77311566  0.00796419     0.13500
C1556       C  0.27906204  0.72566411  0.00023002    -0.20900
C1557       C  0.24463242  0.70266529  0.99117243    -0.07400
C1558       C  0.20632156  0.72753651  0.98954301     0.13500
C1559       C  0.16810866  0.70338206  0.98075399    -0.24200
H1560       H  0.17373467  0.79406865  0.99651600     0.14700
H1561       H  0.30876648  0.70673610  0.00084067     0.14800
C1562       C  0.31425456  0.79676268  0.01710816    -0.24200
H1563       H  0.14040308  0.72769223  0.98161707     0.05000
H1564       H  0.16106574  0.66961186  0.98943353     0.08200
H1565       H  0.17309186  0.69401036  0.96443647     0.08200
H1566       H  0.30945141  0.80393366  0.03366792     0.08200
H1567       H  0.32081517  0.83162813  0.00912664     0.08200
H1568       H  0.34224766  0.77305011  0.01557955     0.05000
C1569       C  0.07766626  0.94123189  0.12437744    -0.20800
C1570       C  0.09645571  0.93548284  0.14358157    -0.07400
C1571       C  0.14055710  0.93308775  0.14481942     0.13500
C1572       C  0.16444322  0.93401643  0.12674369    -0.20900
C1573       C  0.14537077  0.93631007  0.10750728    -0.07400
C1574       C  0.10152682  0.94119796  0.10631086     0.13500
C1575       C  0.07982147  0.94704089  0.08600964    -0.24200
H1576       H  0.04401976  0.94394905  0.12344361     0.14700
H1577       H  0.19809561  0.93104793  0.12758219     0.14800
C1578       C  0.16272008  0.93030180  0.16512321    -0.24200
H1579       H  0.04577574  0.95287034  0.08796877     0.05000
H1580       H  0.08418677  0.91380175  0.07648150     0.08200
H1581       H  0.09271489  0.97909272  0.07781220     0.08200
H1582       H  0.15546868  0.89535511  0.17285640     0.08200
H1583       H  0.15294375  0.96134547  0.17502967     0.08200
H1584       H  0.19709307  0.93209388  0.16323302     0.05000
C1585       C  0.04291365  0.83032109  0.99062457    -0.20800
C1586       C  0.04277378  0.77965281  0.99396504    -0.07400
C1587       C  0.06745729  0.76059700  0.01001315     0.13500
C1588       C  0.09227534  0.79241518  0.02169563    -0.20900
C1589       C  0.09361814  0.84305355  0.01793221    -0.07400
C1590       C  0.06770722  0.86220596  0.00227737     0.13500
C1591       C  0.06600876  0.91590429  0.99731906    -0.24200
H1592       H  0.02332271  0.84532226  0.97869683     0.14700
H1593       H  0.11183157  0.77707386  0.03354687     0.14800
C1594       C  0.06915877  0.70668687  0.01459722    -0.24200
H1595       H  0.04284195  0.92406136  0.98519007     0.05000
H1596       H  0.09677235  0.92847512  0.99163471     0.08200
H1597       H  0.05676133  0.93688826  0.01117683     0.08200
H1598       H  0.07826345  0.68602315  0.00062245     0.08200
H1599       H  0.03832477  0.69396533  0.02011358     0.08200
H1600       H  0.09226246  0.69814849  0.02670582     0.05000
C1601       C  0.08936858  0.64489887  0.52615982    -0.20800
C1602       C  0.10281872  0.68111317  0.53984023    -0.07400
C1603       C  0.13571431  0.67175135  0.55351719     0.13500
C1604       C  0.15354014  0.62534344  0.55363898    -0.20900
C1605       C  0.13911140  0.58843840  0.54050613    -0.07400
C1606       C  0.10704863  0.59827393  0.52638035     0.13500
C1607       C  0.09002394  0.55945220  0.51229504    -0.24200
H1608       H  0.06366718  0.65251639  0.51589866     0.14700
H1609       H  0.17900883  0.61780393  0.56404742     0.14800
C1610       C  0.15256315  0.71058487  0.56769536    -0.24200
H1611       H  0.06319398  0.57310623  0.50323427     0.05000
H1612       H  0.07920345  0.52775269  0.52140208     0.08200
H1613       H  0.11444142  0.54740367  0.50132380     0.08200
H1614       H  0.12857527  0.72146320  0.57909266     0.08200
H1615       H  0.16213675  0.74299072  0.55869097     0.08200
H1616       H  0.18017638  0.69746434  0.57631526     0.05000
C1617       C  0.14413760  0.96211456  0.52423841    -0.20800
C1618       C  0.14104428  0.91197452  0.51959547    -0.07400
C1619       C  0.16616543  0.89287019  0.50348928     0.13500
C1620       C  0.19210326  0.92438995  0.49234485    -0.20900
C1621       C  0.19411342  0.97466158  0.49658167    -0.07400
C1622       C  0.17007234  0.99359724  0.51303904     0.13500
C1623       C  0.17028925  0.04706768  0.51863080    -0.24200
H1624       H  0.12514904  0.97736004  0.53643511     0.14700
H1625       H  0.21094923  0.90942732  0.48002886     0.14800
C1626       C  0.16550197  0.83972179  0.49735294    -0.24200
H1627       H  0.14774240  0.05563858  0.53107341     0.05000
H1628       H  0.16161730  0.06932484  0.50511736     0.08200
H1629       H  0.20164552  0.05771639  0.52416663     0.08200
H1630       H  0.13415023  0.82971270  0.49157717     0.08200
H1631       H  0.17392740  0.81662715  0.51065018     0.08200
H1632       H  0.18815244  0.83151837  0.48491148     0.05000
C1633       C  0.94929925  0.66892496  0.50876040    -0.20800
C1634       C  0.94793048  0.71993312  0.50661011    -0.07400
C1635       C  0.92020849  0.74042641  0.49216560     0.13500
C1636       C  0.89388114  0.70965892  0.48090081    -0.20900
C1637       C  0.89361902  0.65867555  0.48366968    -0.07400
C1638       C  0.92273829  0.63800819  0.49754020     0.13500
C1639       C  0.92617378  0.58372050  0.50092787    -0.24200
H1640       H  0.97123985  0.65305654  0.51944050     0.14700
H1641       H  0.87202524  0.72617802  0.47037104     0.14800
C1642       C  0.91655693  0.79484305  0.48907381    -0.24200
H1643       H  0.95238526  0.57439626  0.51129049     0.05000
H1644       H  0.93184437  0.56484079  0.48610172     0.08200
H1645       H  0.89724912  0.56975008  0.50814341     0.08200
H1646       H  0.94598252  0.80942177  0.48259986     0.08200
H1647       H  0.90949854  0.81310788  0.50389560     0.08200
H1648       H  0.89121851  0.80432462  0.47823138     0.05000
C1649       C  0.83268346  0.85177450  0.57737776    -0.20800
C1650       C  0.82662738  0.90256035  0.57751356    -0.07400
C1651       C  0.86201896  0.93334043  0.57899903     0.13500
C1652       C  0.90211112  0.91256798  0.57885719    -0.20900
C1653       C  0.90823487  0.86197750  0.57674431    -0.07400
C1654       C  0.87275831  0.83102662  0.57672426     0.13500
C1655       C  0.87627785  0.77612651  0.57563242    -0.24200
H1656       H  0.80581543  0.82798167  0.57644915     0.14700
H1657       H  0.92893500  0.93650468  0.57915779     0.14800
C1658       C  0.85826578  0.98816300  0.58046713    -0.24200
H1659       H  0.84550889  0.75817042  0.57750532     0.05000
H1660       H  0.89690032  0.76277319  0.58804155     0.08200
H1661       H  0.88868464  0.76461936  0.56048977     0.08200
H1662       H  0.83717134  0.99824699  0.59331222     0.08200
H1663       H  0.84623268  0.00331693  0.56590477     0.08200
H1664       H  0.88889869  0.00566894  0.58333837     0.05000
C1665       C  0.11567789  0.65746125  0.72930409    -0.20800
C1666       C  0.14109605  0.66762633  0.71236653    -0.07400
C1667       C  0.14808572  0.63092052  0.69734395     0.13500
C1668       C  0.12767999  0.58625029  0.69919447    -0.20900
C1669       C  0.10087310  0.57681256  0.71562863    -0.07400
C1670       C  0.09537358  0.61246180  0.73115816     0.13500
C1671       C  0.06707743  0.60435688  0.74926965    -0.24200
H1672       H  0.11104968  0.68523592  0.74096207     0.14700
H1673       H  0.13225129  0.55850335  0.68750256     0.14800
C1674       C  0.17759540  0.63751863  0.67951141    -0.24200
H1675       H  0.06534132  0.63701132  0.75937394     0.05000
H1676       H  0.07888975  0.57351835  0.75858306     0.08200
H1677       H  0.03511285  0.59621117  0.74390828     0.08200
H1678       H  0.20897839  0.64775117  0.68519598     0.08200
H1679       H  0.16559588  0.66601626  0.66902512     0.08200
H1680       H  0.18113590  0.60350062  0.67034953     0.05000
C1681       C  0.13364104  0.81753290  0.60637001    -0.20800
C1682       C  0.09027939  0.82128670  0.60895503    -0.07400
C1683       C  0.07329227  0.82298314  0.62887733     0.13500
C1684       C  0.10017163  0.82119023  0.64576849    -0.20900
C1685       C  0.14357017  0.81730647  0.64323900    -0.07400
C1686       C  0.16054389  0.81513247  0.62326926     0.13500
C1687       C  0.20690978  0.81254998  0.61966775    -0.24200
H1688       H  0.14650287  0.81674443  0.59100604     0.14700
H1689       H  0.08725773  0.82335615  0.66110005     0.14800
C1690       C  0.02712597  0.82904686  0.63237224    -0.24200
H1691       H  0.21470059  0.81334473  0.60309414     0.05000
H1692       H  0.21955727  0.77808442  0.62603170     0.08200
H1693       H  0.22238315  0.84414846  0.62712965     0.08200
H1694       H  0.01018753  0.79719266  0.62599850     0.08200
H1695       H  0.01602465  0.86289499  0.62481274     0.08200
H1696       H  0.01940772  0.83176302  0.64892299     0.05000
C1697       C  0.08142284  0.88392880  0.75299330    -0.20800
C1698       C  0.09677178  0.90257985  0.73443245    -0.07400
C1699       C  0.08332489  0.94950812  0.72813082     0.13500
C1700       C  0.05644532  0.97669389  0.74082220    -0.20900
C1701       C  0.04249159  0.95901298  0.75984627    -0.07400
C1702       C  0.05479709  0.91125299  0.76579569     0.13500
C1703       C  0.04057994  0.88829527  0.78557363    -0.24200
H1704       H  0.09160623  0.84817061  0.75798919     0.14700
H1705       H  0.04675322  0.01264775  0.73584929     0.14800
C1706       C  0.09673451  0.97155855  0.70803861    -0.24200
H1707       H  0.05320786  0.85080313  0.78747752     0.05000
H1708       H  0.00606298  0.88554526  0.78581920     0.08200
H1709       H  0.05157301  0.91033343  0.79878743     0.08200
H1710       H  0.08988537  0.94587105  0.69529821     0.08200
H1711       H  0.13049824  0.98012076  0.70835003     0.08200
H1712       H  0.08005103  0.00627467  0.70485919     0.05000
C1713       C  0.32250276  0.63241606  0.75344334    -0.20800
C1714       C  0.34508621  0.65438805  0.76944631    -0.07400
C1715       C  0.33889457  0.70512152  0.77320949     0.13500
C1716       C  0.31213700  0.73200918  0.76048161    -0.20900
C1717       C  0.29114036  0.71045852  0.74391816    -0.07400
C1718       C  0.29580874  0.65944688  0.74068686     0.13500
C1719       C  0.27257102  0.63260596  0.72406072    -0.24200
H1720       H  0.32661486  0.59377870  0.75042291     0.14700
H1721       H  0.30821617  0.77076271  0.76332546     0.14800
C1722       C  0.36034356  0.73209473  0.79038991    -0.24200
H1723       H  0.27870516  0.59270006  0.72443144     0.05000
H1724       H  0.28256083  0.64592543  0.70880087     0.08200
H1725       H  0.23848487  0.63804413  0.72604169     0.08200
H1726       H  0.39442801  0.73352907  0.78754736     0.08200
H1727       H  0.35376417  0.71386405  0.80519703     0.08200
H1728       H  0.34933654  0.77045067  0.79175012     0.05000
C1729       C  0.33167107  0.90502321  0.67075471    -0.20800
C1730       C  0.32539907  0.85447590  0.67242786    -0.07400
C1731       C  0.36055940  0.82294952  0.67158399     0.13500
C1732       C  0.40068447  0.84309512  0.67170720    -0.20900
C1733       C  0.40680658  0.89369980  0.67295099    -0.07400
C1734       C  0.37184950  0.92513416  0.67110734     0.13500
C1735       C  0.37625453  0.97984361  0.66976400    -0.24200
H1736       H  0.30497780  0.92934571  0.67065131     0.14700
H1737       H  0.42739202  0.81884968  0.67239147     0.14800
C1738       C  0.35658707  0.76807064  0.67106285    -0.24200
H1739       H  0.34603222  0.99781464  0.66628496     0.05000
H1740       H  0.39846129  0.98927130  0.65733678     0.08200
H1741       H  0.38725718  0.99508983  0.68453420     0.08200
H1742       H  0.33506327  0.75701770  0.65860379     0.08200
H1743       H  0.34510233  0.75434567  0.68599376     0.08200
H1744       H  0.38707689  0.75002678  0.66813364     0.05000
C1745       C  0.39822498  0.36097734  0.95165981    -0.20800
C1746       C  0.38904139  0.32750851  0.96733356    -0.07400
C1747       C  0.35904902  0.34039110  0.98237640     0.13500
C1748       C  0.33901065  0.38599376  0.98111904    -0.20900
C1749       C  0.34787215  0.41864055  0.96516461    -0.07400
C1750       C  0.37824627  0.40616801  0.95037528     0.13500
C1751       C  0.39073063  0.44069414  0.93346264    -0.24200
H1752       H  0.42120704  0.35170081  0.94008793     0.14700
H1753       H  0.31548671  0.39573376  0.99236710     0.14800
C1754       C  0.34829036  0.30703908  0.99988878    -0.24200
H1755       H  0.41752745  0.42644304  0.92443048     0.05000
H1756       H  0.40004789  0.47639634  0.94010772     0.08200
H1757       H  0.36455656  0.44602453  0.92263764     0.08200
H1758       H  0.37675678  0.29865099  0.00885358     0.08200
H1759       H  0.33446549  0.27272450  0.99393180     0.08200
H1760       H  0.32519795  0.32395030  0.01046515     0.05000
C1761       C  0.55272079  0.27484503  0.01568343    -0.20800
C1762       C  0.54993850  0.28053961  0.99430961    -0.07400
C1763       C  0.57247282  0.31876564  0.98493127     0.13500
C1764       C  0.59725053  0.34967277  0.99705600    -0.20900
C1765       C  0.60078861  0.34324488  0.01832430    -0.07400
C1766       C  0.57813070  0.30525983  0.02775609     0.13500
C1767       C  0.57962278  0.29750140  0.05057400    -0.24200
H1768       H  0.53485123  0.24625582  0.02300926     0.14700
H1769       H  0.61508500  0.37830257  0.98973203     0.14800
C1770       C  0.56969618  0.32822810  0.96226618    -0.24200
H1771       H  0.55793667  0.26824562  0.05549657     0.05000
H1772       H  0.57058390  0.33170544  0.05863856     0.08200
H1773       H  0.61145459  0.28653373  0.05530030     0.08200
H1774       H  0.53674627  0.33486023  0.95789778     0.08200
H1775       H  0.58213957  0.29639091  0.95362549     0.08200
H1776       H  0.58809833  0.36072287  0.95770823     0.05000
C1777       C  0.62824749  0.06296491  0.92798330    -0.20800
C1778       C  0.65924579  0.09907600  0.92690236    -0.07400
C1779       C  0.64676705  0.14815601  0.92370886     0.13500
C1780       C  0.60409665  0.16021614  0.92466943    -0.20900
C1781       C  0.57345942  0.12451805  0.92820204    -0.07400
C1782       C  0.58574432  0.07476790  0.92851992     0.13500
C1783       C  0.55467995  0.03348919  0.92943454    -0.24200
H1784       H  0.63732142  0.02498401  0.92935344     0.14700
H1785       H  0.59486657  0.19820314  0.92362775     0.14800
C1786       C  0.67775921  0.18824131  0.91958591    -0.24200
H1787       H  0.56997700  0.99738349  0.92735064     0.05000
H1788       H  0.53136661  0.03769657  0.91703156     0.08200
H1789       H  0.53878195  0.03264690  0.94450389     0.08200
H1790       H  0.69582040  0.17937240  0.90553187     0.08200
H1791       H  0.69942727  0.19264919  0.93262016     0.08200
H1792       H  0.66214666  0.22397358  0.91715022     0.05000
C1793       C  0.30748348  0.01576934  0.98787040    -0.20800
C1794       C  0.28264548  0.03740829  0.00320387    -0.07400
C1795       C  0.28235339  0.08904083  0.00508512     0.13500
C1796       C  0.30935409  0.11685253  0.99289568    -0.20900
C1797       C  0.33642320  0.09492716  0.97868416    -0.07400
C1798       C  0.33456008  0.04379521  0.97569172     0.13500
C1799       C  0.36285655  0.01819162  0.96064160    -0.24200
H1800       H  0.30711742  0.97643878  0.98601392     0.14700
H1801       H  0.31092840  0.15603456  0.99520090     0.14800
C1802       C  0.25362919  0.11552856  0.01973406    -0.24200
H1803       H  0.35726159  0.97820129  0.96029493     0.05000
H1804       H  0.39587449  0.02405803  0.96493358     0.08200
H1805       H  0.35734302  0.03256050  0.94501582     0.08200
H1806       H  0.26202310  0.10697915  0.03578721     0.08200
H1807       H  0.22084933  0.10482711  0.01673928     0.08200
H1808       H  0.25570547  0.15576571  0.01799365     0.05000
C1809       C  0.36003365  0.40968852  0.80656211    -0.20800
C1810       C  0.38301065  0.42135194  0.78899988    -0.07400
C1811       C  0.38458444  0.38782153  0.77247684     0.13500
C1812       C  0.36468005  0.34258077  0.77448534    -0.20900
C1813       C  0.34338309  0.32997502  0.79252148    -0.07400
C1814       C  0.34033799  0.36468852  0.80866940     0.13500
C1815       C  0.31636950  0.35560318  0.82822364    -0.24200
H1816       H  0.35823763  0.43581073  0.81905595     0.14700
H1817       H  0.36639831  0.31654945  0.76197316     0.14800
C1818       C  0.40807951  0.39842009  0.75298785    -0.24200
H1819       H  0.31611504  0.38804889  0.83848104     0.05000
H1820       H  0.33109396  0.32539205  0.83687786     0.08200
H1821       H  0.28342830  0.34672170  0.82465435     0.08200
H1822       H  0.44137687  0.40525567  0.75644143     0.08200
H1823       H  0.39436278  0.43080731  0.74536009     0.08200
H1824       H  0.40661307  0.36742461  0.74200084     0.05000
C1825       C  0.25156438  0.00093483  0.77300742    -0.20800
C1826       C  0.24886681  0.04364261  0.76120894    -0.07400
C1827       C  0.24422463  0.04000241  0.73978784     0.13500
C1828       C  0.24160808  0.99367851  0.73081344    -0.20900
C1829       C  0.24370621  0.95097316  0.74266043    -0.07400
C1830       C  0.24919753  0.95461467  0.76401842     0.13500
C1831       C  0.25388338  0.91011172  0.77733681    -0.24200
H1832       H  0.25655941  0.00375988  0.78937638     0.14700
H1833       H  0.23662639  0.99088506  0.71444651     0.14800
C1834       C  0.24056564  0.08447279  0.72637405    -0.24200
H1835       H  0.26143738  0.92010156  0.79339802     0.05000
H1836       H  0.27952974  0.88670238  0.77138051     0.08200
H1837       H  0.22441783  0.88907193  0.77765731     0.08200
H1838       H  0.27012082  0.10537104  0.72650848     0.08200
H1839       H  0.21462961  0.10793443  0.73193194     0.08200
H1840       H  0.23402090  0.07450981  0.71020189     0.05000
C1841       C  0.37999766  0.15639770  0.86160704    -0.20800
C1842       C  0.34359277  0.18528551  0.86122099    -0.07400
C1843       C  0.33638172  0.21812866  0.87777002     0.13500
C1844       C  0.36461018  0.21937645  0.89433114    -0.20900
C1845       C  0.39964804  0.18852820  0.89496770    -0.07400
C1846       C  0.40783366  0.15744714  0.87809143     0.13500
C1847       C  0.44639026  0.12578098  0.87703679    -0.24200
H1848       H  0.38684124  0.13203701  0.84892869     0.14700
H1849       H  0.35845198  0.24333751  0.90724024     0.14800
C1850       C  0.29896642  0.25142453  0.87844144    -0.24200
H1851       H  0.44960971  0.10734503  0.86193744     0.05000
H1852       H  0.44501347  0.09673231  0.88878803     0.08200
H1853       H  0.47457630  0.14851489  0.87942960     0.08200
H1854       H  0.26993881  0.22947508  0.87827714     0.08200
H1855       H  0.29948971  0.27640339  0.86511961     0.08200
H1856       H  0.29848312  0.27432320  0.89251266     0.05000
C1857       C  0.14611568  0.29507070  0.73113052    -0.20800
C1858       C  0.14316049  0.34535692  0.73558145    -0.07400
C1859       C  0.16859530  0.36448864  0.75147538     0.13500
C1860       C  0.19407428  0.33271517  0.76286548    -0.20900
C1861       C  0.19552551  0.28222098  0.75893902    -0.07400
C1862       C  0.17173288  0.26344523  0.74245024     0.13500
C1863       C  0.17188126  0.20993318  0.73693662    -0.24200
H1864       H  0.12719482  0.27975940  0.71900052     0.14700
H1865       H  0.21308185  0.34761070  0.77506402     0.14800
C1866       C  0.16905681  0.41803353  0.75694057    -0.24200
H1867       H  0.14949121  0.20146348  0.72448771     0.05000
H1868       H  0.16297726  0.18786042  0.75047154     0.08200
H1869       H  0.20328931  0.19896541  0.73143701     0.08200
H1870       H  0.13811602  0.42945974  0.76291368     0.08200
H1871       H  0.17738109  0.43988579  0.74325356     0.08200
H1872       H  0.19229370  0.42636225  0.76902780     0.05000
C1873       C  0.12724271  0.17046913  0.83342590    -0.20800
C1874       C  0.15992201  0.13661115  0.83100366    -0.07400
C1875       C  0.15027337  0.08612716  0.83113128     0.13500
C1876       C  0.10835547  0.07157410  0.83100375    -0.20900
C1877       C  0.07554405  0.10571426  0.83111495    -0.07400
C1878       C  0.08528780  0.15578999  0.83383220     0.13500
C1879       C  0.05212676  0.19440727  0.83653987    -0.24200
H1880       H  0.13450280  0.20904751  0.83420229     0.14700
H1881       H  0.10121626  0.03302265  0.82981965     0.14800
C1882       C  0.18340526  0.04702189  0.83037669    -0.24200
H1883       H  0.03205855  0.19636523  0.82278511     0.05000
H1884       H  0.06579893  0.23119403  0.83892188     0.08200
H1885       H  0.03283255  0.18589557  0.85019385     0.08200
H1886       H  0.20441276  0.05075922  0.84376018     0.08200
H1887       H  0.20152859  0.04975159  0.81600251     0.08200
H1888       H  0.16983212  0.00978314  0.83085530     0.05000
C1889       C  0.44846863  0.08309760  0.74703786    -0.20800
C1890       C  0.44387231  0.03208398  0.74730081    -0.07400
C1891       C  0.41392280  0.01122513  0.76047732     0.13500
C1892       C  0.38856296  0.04192703  0.77244116    -0.20900
C1893       C  0.39171726  0.09328796  0.77163358    -0.07400
C1894       C  0.42303597  0.11398602  0.75901504     0.13500
C1895       C  0.43015032  0.16829178  0.75791936    -0.24200
H1896       H  0.47217741  0.09898613  0.73728157     0.14700
H1897       H  0.36483718  0.02527106  0.78193995     0.14800
C1898       C  0.40696654  0.95680139  0.76132282    -0.24200
H1899       H  0.45779426  0.17732709  0.74840238     0.05000
H1900       H  0.43558738  0.18314267  0.77352468     0.08200
H1901       H  0.40286680  0.18657706  0.75088043     0.08200
H1902       H  0.38039223  0.94720826  0.77145918     0.08200
H1903       H  0.43507130  0.93829778  0.76743316     0.08200
H1904       H  0.39998306  0.94259293  0.74576172     0.05000
C1905       C  0.65046750  0.63691871  0.22755116    -0.20800
C1906       C  0.64040439  0.67173204  0.21263076    -0.07400
C1907       C  0.60916912  0.66134036  0.19807204     0.13500
C1908       C  0.58950516  0.61590901  0.19851832    -0.20900
C1909       C  0.60023404  0.58037348  0.21303656    -0.07400
C1910       C  0.63086733  0.59115480  0.22791662     0.13500
C1911       C  0.64427244  0.55422095  0.24364507    -0.24200
H1912       H  0.67479289  0.64497375  0.23853950     0.14700
H1913       H  0.56532065  0.60816592  0.18742105     0.14800
C1914       C  0.59567512  0.69825355  0.18229317    -0.24200
H1915       H  0.67044833  0.56793341  0.25314314     0.05000
H1916       H  0.65481805  0.52019446  0.23589426     0.08200
H1917       H  0.61799029  0.54596471  0.25412936     0.08200
H1918       H  0.62131759  0.70531811  0.17128854     0.08200
H1919       H  0.58648520  0.73287221  0.18999068     0.08200
H1920       H  0.56856033  0.68520796  0.17328497     0.05000
C1921       C  0.59861467  0.95430978  0.23215740    -0.20800
C1922       C  0.59805818  0.90302751  0.23394854    -0.07400
C1923       C  0.56899662  0.88178361  0.24771704     0.13500
C1924       C  0.54255980  0.91220703  0.25939266    -0.20900
C1925       C  0.54390479  0.96332180  0.25780060    -0.07400
C1926       C  0.57225031  0.98456715  0.24383026     0.13500
C1927       C  0.57626671  0.03917236  0.24162945    -0.24200
H1928       H  0.62080435  0.97134488  0.22192317     0.14700
H1929       H  0.52041253  0.89582015  0.26985527     0.14800
C1930       C  0.56534960  0.82731712  0.25043779    -0.24200
H1931       H  0.60226042  0.04925957  0.23122521     0.05000
H1932       H  0.58250650  0.05605011  0.25679486     0.08200
H1933       H  0.54724920  0.05467702  0.23510156     0.08200
H1934       H  0.59442597  0.81246607  0.25717404     0.08200
H1935       H  0.55913093  0.80959418  0.23543975     0.08200
H1936       H  0.53941928  0.81756968  0.26093974     0.05000
C1937       C  0.79203777  0.66628670  0.24394515    -0.20800
C1938       C  0.79481458  0.71732183  0.24543934    -0.07400
C1939       C  0.82255799  0.73807586  0.25981001     0.13500
C1940       C  0.84844854  0.70729003  0.27128622    -0.20900
C1941       C  0.84709150  0.65602563  0.26924669    -0.07400
C1942       C  0.81725289  0.63533783  0.25577527     0.13500
C1943       C  0.81136504  0.58096370  0.25360602    -0.24200
H1944       H  0.76964242  0.65039492  0.23347191     0.14700
H1945       H  0.87068804  0.72383700  0.28163594     0.14800
C1946       C  0.82598725  0.79259690  0.26286439    -0.24200
H1947       H  0.78465461  0.57193511  0.24350101    -0.07800
H1948       H  0.80498810  0.56470195  0.26883910     0.08200
H1949       H  0.83953290  0.56401274  0.24669296     0.08200
H1950       H  0.79663738  0.80711092  0.26956132     0.08200
H1951       H  0.83212327  0.81085163  0.24802231     0.08200
H1952       H  0.85166736  0.80231333  0.27348646     0.05000
C1953       C  0.86157666  0.82448890  0.17133280    -0.20800
C1954       C  0.82876997  0.85865595  0.17190038    -0.07400
C1955       C  0.83851399  0.90870351  0.16930354     0.13500
C1956       C  0.88052371  0.92339702  0.16984123    -0.20900
C1957       C  0.91325142  0.88938065  0.17178250    -0.07400
C1958       C  0.90352896  0.83900773  0.17081831     0.13500
C1959       C  0.93673234  0.80001273  0.16998461    -0.24200
H1960       H  0.85441881  0.78590234  0.17214722     0.14700
H1961       H  0.88777578  0.96200377  0.16944431     0.14800
C1962       C  0.80529485  0.94704906  0.16632254    -0.24200
H1963       H  0.95628261  0.80134936  0.18390111     0.05000
H1964       H  0.95653395  0.80533206  0.15621747     0.08200
H1965       H  0.92314592  0.76282986  0.16901659     0.08200
H1966       H  0.78419052  0.94886867  0.17973813     0.08200
H1967       H  0.78691407  0.93825476  0.15241634     0.08200
H1968       H  0.81891566  0.98392926  0.16421454     0.05000
C1969       C  0.58416001  0.63335202  0.05336681    -0.20800
C1970       C  0.59465077  0.66804560  0.03845293    -0.07400
C1971       C  0.62267195  0.65526049  0.02258457     0.13500
C1972       C  0.64133935  0.60894907  0.02282723    -0.20900
C1973       C  0.63257751  0.57550677  0.03848157    -0.07400
C1974       C  0.60263068  0.58725349  0.05361258     0.13500
C1975       C  0.58942976  0.55141079  0.06990486    -0.24200
H1976       H  0.56133900  0.64243537  0.06505587     0.14700
H1977       H  0.66433091  0.59964059  0.01125173     0.14800
C1978       C  0.63437573  0.69056089  0.00590856    -0.24200
H1979       H  0.56286663  0.56553312  0.07914279     0.05000
H1980       H  0.61537034  0.54429653  0.08068033     0.08200
H1981       H  0.57944229  0.51665724  0.06264171     0.08200
H1982       H  0.64708401  0.72454544  0.01276137     0.08200
H1983       H  0.60662385  0.69933491  0.99650347     0.08200
H1984       H  0.65845107  0.67506687  0.99548262     0.05000
C1985       C  0.52756244  0.98213567  0.00679606    -0.20800
C1986       C  0.49320575  0.95585116  0.01428947    -0.07400
C1987       C  0.45430361  0.97937501  0.01659790     0.13500
C1988       C  0.45058371  0.02846850  0.01115178    -0.20900
C1989       C  0.48455411  0.05438509  0.00320721    -0.07400
C1990       C  0.52360240  0.03127420  0.00115445     0.13500
C1991       C  0.56063399  0.05816858  0.99260441    -0.24200
H1992       H  0.55770976  0.96436441  0.00563339     0.14700
H1993       H  0.42018456  0.04588636  0.01169742     0.14800
C1994       C  0.41612854  0.95221380  0.02365200    -0.24200
H1995       H  0.58881259  0.03455566  0.99190808     0.05000
H1996       H  0.56767606  0.09015294  0.00248171     0.08200
H1997       H  0.55385807  0.07114287  0.97690282     0.08200
H1998       H  0.42030905  0.93967027  0.03957103     0.08200
H1999       H  0.41069862  0.92021033  0.01353429     0.08200
H2000       H  0.38779494  0.97558085  0.02328305     0.05000
C2001       C  0.63523392  0.80969239  0.10694958    -0.20800
C2002       C  0.59182722  0.80894539  0.10987860    -0.07400
C2003       C  0.57565386  0.80714868  0.12999415     0.13500
C2004       C  0.60329587  0.80844945  0.14664978    -0.20900
C2005       C  0.64667272  0.81035410  0.14369613    -0.07400
C2006       C  0.66288007  0.80984357  0.12358649     0.13500
C2007       C  0.70911266  0.81185220  0.11958081    -0.24200
H2008       H  0.64756501  0.81091508  0.09148957     0.14700
H2009       H  0.59097684  0.80865564  0.16212357     0.14800
C2010       C  0.52940520  0.80622366  0.13399670    -0.24200
H2011       H  0.71622126  0.81313392  0.10294215     0.05000
H2012       H  0.72442813  0.77886877  0.12592394     0.08200
H2013       H  0.72250629  0.84498709  0.12684248     0.08200
H2014       H  0.51573577  0.77253670  0.12736495     0.08200
H2015       H  0.51441906  0.83868597  0.12700389     0.08200
H2016       H  0.52225743  0.80659896  0.15064491     0.05000
C2017       C  0.66227796  0.88183327  0.00500313    -0.20800
C2018       C  0.64049483  0.90367075  0.02140204    -0.07400
C2019       C  0.64976478  0.95298389  0.02644069     0.13500
C2020       C  0.67816315  0.97922117  0.01430441    -0.20900
C2021       C  0.69800023  0.95820675  0.99716591    -0.07400
C2022       C  0.69069431  0.90809611  0.99287693     0.13500
C2023       C  0.71266844  0.88138322  0.97570415    -0.24200
H2024       H  0.65608678  0.84405810  0.00111927     0.14700
H2025       H  0.68421333  0.01710164  0.01806397     0.14800
C2026       C  0.63011998  0.97889870  0.04447901    -0.24200
H2027       H  0.70452398  0.84200717  0.97532185     0.05000
H2028       H  0.74695166  0.88400140  0.97771867     0.08200
H2029       H  0.70349018  0.89704842  0.96073487     0.08200
H2030       H  0.63550078  0.95759462  0.05865947     0.08200
H2031       H  0.59622847  0.98394940  0.04190126     0.08200
H2032       H  0.64358665  0.01578150  0.04689487     0.05000
C2033       C  0.42912434  0.72795950  0.98920641    -0.20800
C2034       C  0.44596641  0.70965453  0.00750063    -0.07400
C2035       C  0.43736136  0.66016550  0.01263441     0.13500
C2036       C  0.41017423  0.63247639  0.00032222    -0.20900
C2037       C  0.39113396  0.65187818  0.98278573    -0.07400
C2038       C  0.40218922  0.70003593  0.97680624     0.13500
C2039       C  0.38613816  0.72274691  0.95735695    -0.24200
H2040       H  0.43646284  0.76496194  0.98466982     0.14700
H2041       H  0.40263415  0.59557746  0.00493324     0.14800
C2042       C  0.45650772  0.63540540  0.03096712    -0.24200
H2043       H  0.40119060  0.75842039  0.95422273     0.05000
H2044       H  0.35214488  0.72964109  0.95858320     0.08200
H2045       H  0.39286337  0.69828022  0.94415185     0.08200
H2046       H  0.44577898  0.65342497  0.04529214     0.08200
H2047       H  0.49103684  0.63666972  0.02986072     0.08200
H2048       H  0.44747622  0.59637331  0.03198137     0.05000
C2049       C  0.40201866  0.90451322  0.07803398    -0.20800
C2050       C  0.40833359  0.85384827  0.07869121    -0.07400
C2051       C  0.37303285  0.82297736  0.08010965     0.13500
C2052       C  0.33283899  0.84330131  0.07882147    -0.20900
C2053       C  0.32663094  0.89354307  0.07567770    -0.07400
C2054       C  0.36192836  0.92479328  0.07607014     0.13500
C2055       C  0.35826601  0.97946090  0.07393660    -0.24200
H2056       H  0.42886055  0.92840754  0.07741703     0.14700
H2057       H  0.30614764  0.81915678  0.07905088     0.14800
C2058       C  0.37714584  0.76852804  0.08286504    -0.24200
H2059       H  0.38876123  0.99788010  0.07605184     0.05000
H2060       H  0.33647912  0.99412793  0.08568400     0.08200
H2061       H  0.34715386  0.98899920  0.05838577     0.08200
H2062       H  0.39756234  0.76067827  0.09615753     0.08200
H2063       H  0.39016127  0.75130714  0.06884241     0.08200
H2064       H  0.34647967  0.75115463  0.08579971     0.05000
C2065       C  0.83516375  0.36601594  0.30356104    -0.20800
C2066       C  0.85065349  0.32900266  0.29070989    -0.07400
C2067       C  0.88347647  0.33913146  0.27695665     0.13500
C2068       C  0.90079012  0.38604083  0.27689542    -0.20900
C2069       C  0.88595681  0.42251658  0.29022474    -0.07400
C2070       C  0.85225696  0.41273049  0.30344189     0.13500
C2071       C  0.83324194  0.45168761  0.31690345    -0.24200
H2072       H  0.80899630  0.35849728  0.31359935     0.14700
H2073       H  0.92701377  0.39381584  0.26692990     0.14800
C2074       C  0.90143275  0.30041485  0.26302267    -0.24200
H2075       H  0.80551718  0.43809689  0.32532977     0.05000
H2076       H  0.82308534  0.48273991  0.30724802     0.08200
H2077       H  0.85607160  0.46440550  0.32845754     0.08200
H2078       H  0.87760838  0.28830270  0.25183908     0.08200
H2079       H  0.91201567  0.26872521  0.27221295     0.08200
H2080       H  0.92858480  0.31421149  0.25420996     0.05000
C2081       C  0.70895192  0.97259150  0.25460224    -0.20800
C2082       C  0.74208649  0.95382131  0.24282482    -0.07400
C2083       C  0.77811788  0.98224149  0.23973379     0.13500
C2084       C  0.77934390  0.02944947  0.24789450    -0.20900
C2085       C  0.74617954  0.04832383  0.25965139    -0.07400
C2086       C  0.71061319  0.01932785  0.26322673     0.13500
C2087       C  0.67398844  0.03750695  0.27564978    -0.24200
H2088       H  0.68105578  0.95091231  0.25671867     0.14700
H2089       H  0.80732439  0.05099941  0.24581396     0.14800
C2090       C  0.81608065  0.96240488  0.22882726    -0.24200
H2091       H  0.64771813  0.01117115  0.27545692     0.05000
H2092       H  0.66253598  0.07260206  0.26932410     0.08200
H2093       H  0.68317025  0.04260078  0.29185956     0.08200
H2094       H  0.80901397  0.95492784  0.21257675     0.08200
H2095       H  0.82654295  0.92820893  0.23631664     0.08200
H2096       H  0.84241970  0.98864174  0.22920313     0.05000
C2097       C  0.68101630  0.26965739  0.24039426    -0.20800
C2098       C  0.70124261  0.29092599  0.25724224    -0.07400
C2099       C  0.69543365  0.34165426  0.26091467     0.13500
C2100       C  0.66782498  0.36836308  0.24850595    -0.20900
C2101       C  0.64543149  0.34628483  0.23246404    -0.07400
C2102       C  0.65333387  0.29621405  0.22803611     0.13500
C2103       C  0.63268544  0.26960189  0.21052874    -0.24200
H2104       H  0.68597982  0.23125827  0.23713203     0.14700
H2105       H  0.66257365  0.40661972  0.25194433     0.14800
C2106       C  0.71821409  0.36850378  0.27769956    -0.24200
H2107       H  0.64545077  0.23217823  0.20844220     0.05000
H2108       H  0.63795800  0.28968192  0.19602302     0.08200
H2109       H  0.59881221  0.26566609  0.21353755     0.08200
H2110       H  0.75238060  0.36387645  0.27569913     0.08200
H2111       H  0.70843701  0.35455498  0.29289005     0.08200
H2112       H  0.71143090  0.40828188  0.27753288     0.05000
C2113       C  0.58290682  0.15773098  0.32748182    -0.20800
C2114       C  0.57703726  0.10691365  0.32743913    -0.07400
C2115       C  0.61258122  0.07616784  0.32896359     0.13500
C2116       C  0.65254863  0.09693368  0.32915777    -0.20900
C2117       C  0.65856960  0.14745166  0.32713765    -0.07400
C2118       C  0.62298737  0.17844174  0.32703644     0.13500
C2119       C  0.62647598  0.23330573  0.32613873    -0.24200
H2120       H  0.55595581  0.18151996  0.32652531     0.14700
H2121       H  0.67944065  0.07297246  0.32958630     0.14800
C2122       C  0.60921595  0.02129846  0.33001077    -0.24200
H2123       H  0.59563196  0.25138182  0.32786975     0.05000
H2124       H  0.63932260  0.24472298  0.31112304     0.08200
H2125       H  0.64676446  0.24656908  0.33872030     0.08200
H2126       H  0.59789504  0.00643812  0.31521745     0.08200
H2127       H  0.58775256  0.01081053  0.34259444     0.08200
H2128       H  0.63986804  0.00385107  0.33301727     0.05000
C2129       C  0.91985687  0.01149437  0.25915263    -0.20800
C2130       C  0.94478791  0.03428074  0.24434619    -0.07400
C2131       C  0.94342899  0.08592088  0.24284981     0.13500
C2132       C  0.91619037  0.11270942  0.25556593    -0.20900
C2133       C  0.88982329  0.08984257  0.26984066    -0.07400
C2134       C  0.89243845  0.03812073  0.27182172     0.13500
C2135       C  0.86647747  0.00983534  0.28697434    -0.24200
H2136       H  0.92124014  0.97210778  0.26057548     0.14700
H2137       H  0.91486779  0.15202776  0.25392288     0.14800
C2138       C  0.97108691  0.11357567  0.22824142    -0.24200
H2139       H  0.87436553  0.97032943  0.28688890     0.05000
H2140       H  0.83293884  0.01279860  0.28309893     0.08200
H2141       H  0.87207585  0.02380015  0.30270370     0.08200
H2142       H  0.96300520  0.10424220  0.21219473     0.08200
H2143       H  0.00427030  0.10452008  0.23120942     0.08200
H2144       H  0.96742138  0.15370672  0.22998708     0.05000
C2145       C  0.86806278  0.35065260  0.47939126    -0.20800
C2146       C  0.89003200  0.33738976  0.46162671    -0.07400
C2147       C  0.89364047  0.37105258  0.44528869     0.13500
C2148       C  0.87380103  0.41608558  0.44697338    -0.20900
C2149       C  0.85080350  0.42884894  0.46443865    -0.07400
C2150       C  0.84850543  0.39610955  0.48111048     0.13500
C2151       C  0.82489294  0.40778590  0.50052469    -0.24200
H2152       H  0.86593478  0.32514386  0.49198947     0.14700
H2153       H  0.87587445  0.44144768  0.43433116     0.14800
C2154       C  0.91885179  0.36101722  0.42613830    -0.24200
H2155       H  0.82568263  0.37703038  0.51154530     0.05000
H2156       H  0.79178111  0.41541348  0.49696793     0.08200
H2157       H  0.83900650  0.43993491  0.50820163     0.08200
H2158       H  0.90495233  0.33030662  0.41739655     0.08200
H2159       H  0.95160240  0.35241009  0.43026944     0.08200
H2160       H  0.91957017  0.39297751  0.41573264     0.05000
C2161       C  0.96861677  0.99186367  0.51890586    -0.20800
C2162       C  0.99613227  0.95899616  0.50931018    -0.07400
C2163       C  0.02026675  0.97494827  0.49239666     0.13500
C2164       C  0.01680173  0.02331908  0.48609289    -0.20900
C2165       C  0.98906210  0.05609533  0.49553802    -0.07400
C2166       C  0.96470683  0.04011206  0.51236151     0.13500
C2167       C  0.93405536  0.07267055  0.52350059    -0.24200
H2168       H  0.95022792  0.97990320  0.53189399     0.14700
H2169       H  0.03560995  0.03540024  0.47329953     0.14800
C2170       C  0.05010029  0.94221955  0.48076825    -0.24200
H2171       H  0.91871080  0.05367965  0.53647931     0.05000
H2172       H  0.90905817  0.08439388  0.51292794     0.08200
H2173       H  0.95040975  0.10496689  0.52987691     0.08200
H2174       H  0.03315229  0.91018953  0.47452590     0.08200
H2175       H  0.07570836  0.93011952  0.49091116     0.08200
H2176       H  0.06479670  0.96119235  0.46760742     0.05000
C2177       C  0.85049037  0.18279667  0.39688191    -0.20800
C2178       C  0.89393558  0.18686115  0.39447580    -0.07400
C2179       C  0.91080194  0.19112368  0.37454397     0.13500
C2180       C  0.88393929  0.18966655  0.35758553    -0.20900
C2181       C  0.84061748  0.18535702  0.36003316    -0.07400
C2182       C  0.82360240  0.18253769  0.37993010     0.13500
C2183       C  0.77736087  0.17726029  0.38329030    -0.24200
H2184       H  0.83750866  0.17957971  0.41215727     0.14700
H2185       H  0.89682097  0.19174111  0.34225254     0.14800
C2186       C  0.95707220  0.19523532  0.37097217    -0.24200
H2187       H  0.76951724  0.17386756  0.39979415     0.05000
H2188       H  0.76591212  0.14408805  0.37528406     0.08200
H2189       H  0.76084757  0.20981352  0.37728445     0.08200
H2190       H  0.97334371  0.16350653  0.37786932     0.08200
H2191       H  0.96888617  0.22954737  0.37790189     0.08200
H2192       H  0.96483174  0.19597477  0.35439661     0.05000
C2193       C  0.05194760  0.28156138  0.51482018    -0.20800
C2194       C  0.03907811  0.29770330  0.49537063    -0.07400
C2195       C  0.05131015  0.34521862  0.48906565     0.13500
C2196       C  0.07796727  0.37300434  0.50158569    -0.20900
C2197       C  0.09296536  0.35537989  0.52036902    -0.07400
C2198       C  0.07839154  0.30957372  0.52736817     0.13500
C2199       C  0.08989390  0.28995647  0.54815093    -0.24200
H2200       H  0.04173674  0.24623355  0.52024923     0.14700
H2201       H  0.08849502  0.40825148  0.49618671     0.14800
C2202       C  0.03680343  0.36754469  0.46923109    -0.24200
H2203       H  0.07233789  0.25622313  0.55185603     0.05000
H2204       H  0.08251159  0.31755560  0.56013239     0.08200
H2205       H  0.12349963  0.28052232  0.54863688     0.08200
H2206       H  0.00223304  0.36963181  0.46902338     0.08200
H2207       H  0.04825705  0.34551911  0.45606603     0.08200
H2208       H  0.04875604  0.40523909  0.46720468     0.05000
C2209       C  0.12762929  0.08126385  0.42347830    -0.20800
C2210       C  0.16018266  0.11552323  0.42406503    -0.07400
C2211       C  0.15010789  0.16577138  0.42244111     0.13500
C2212       C  0.10804548  0.18019709  0.42288979    -0.20900
C2213       C  0.07558922  0.14601246  0.42461647    -0.07400
C2214       C  0.08560138  0.09563566  0.42359268     0.13500
C2215       C  0.05270131  0.05642766  0.42354369    -0.24200
H2216       H  0.13509289  0.04267067  0.42392013     0.14700
H2217       H  0.10055242  0.21879838  0.42286196     0.14800
C2218       C  0.18302815  0.20481952  0.42120948    -0.24200
H2219       H  0.06651397  0.01925957  0.42264135     0.05000
H2220       H  0.03209719  0.06104006  0.41006142     0.08200
H2221       H  0.03399628  0.05830414  0.43778922     0.08200
H2222       H  0.20314255  0.19833948  0.40761047     0.08200
H2223       H  0.20218419  0.20487512  0.43529057     0.08200
H2224       H  0.16917368  0.24182055  0.41967982     0.05000
C2225       C  0.80153423  0.03335663  0.48997419    -0.20800
C2226       C  0.78733881  0.05070979  0.50906284    -0.07400
C2227       C  0.79915846  0.09856065  0.51527221     0.13500
C2228       C  0.82643931  0.12573960  0.50291794    -0.20900
C2229       C  0.84270678  0.10695340  0.48451809    -0.07400
C2230       C  0.82885475  0.06056666  0.47766706     0.13500
C2231       C  0.84226592  0.03921148  0.45735713    -0.24200
H2232       H  0.79185242  0.99760224  0.48470657     0.14700
H2233       H  0.83663639  0.16127830  0.50821728     0.14800
C2234       C  0.78364983  0.12187784  0.53483722    -0.24200
H2235       H  0.82489041  0.00532022  0.45362853     0.05000
H2236       H  0.87580923  0.02941347  0.45770148     0.08200
H2237       H  0.83625303  0.06586790  0.44493957     0.08200
H2238       H  0.79439719  0.10052846  0.54823923     0.08200
H2239       H  0.74909466  0.12402791  0.53464132     0.08200
H2240       H  0.79551985  0.15965533  0.53679734     0.05000
loop_ 
_geom_bond_atom_site_label_1 
_geom_bond_atom_site_label_2 
_geom_bond_distance 
_geom_bond_site_symmetry_2 
_ccdc_geom_bond_type 
O1          Cr19   2.025       .  S
O1            C9   1.269       .  A
O2          Cr19   1.944       .  S
O2            C3   1.253       .  A
C3            O4   1.267       .  A
C3         C2146   1.467       .  S
O4          Cr20   2.004       .  S
O5          Cr20   1.985       .  S
O5            C6   1.263       .  A
C6            O7   1.263       .  A
C6         C2229   1.492       .  S
O7          Cr21   2.005       .  S
O8          Cr21   1.968       .  S
O8            C9   1.257       .  A
C9         C2178   1.484       .  S
O10         Cr19   1.968   1_455  S
O10          C18   1.259       .  A
O11         Cr19   2.023   1_455  S
O11          C12   1.268       .  A
C12          O13   1.262   1_455  A
C12        C2194   1.503       .  S
O13         Cr20   1.979       .  S
O14         Cr20   2.002       .  S
O14          C15   1.264       .  A
C15          O16   1.258       .  A
C15        C2165   1.475       .  S
O16         Cr21   1.951       .  S
O17         Cr21   2.019   1_455  S
O17          C18   1.267       .  A
C18        C2213   1.491       .  S
Cr19         O22   1.759       .  S
Cr20         O22   1.770       .  S
Cr21         O22   1.757       .  S
O23         Cr41   2.024       .  S
O23          C31   1.268       .  A
O24         Cr41   1.954       .  S
O24          C25   1.259       .  A
C25          O26   1.267       .  A
C25        C2066   1.466       .  S
O26         Cr42   2.008       .  S
O27         Cr42   1.985       .  S
O27          C28   1.264       .  A
C28          O29   1.264       .  A
C28        C2133   1.501       .  S
O29         Cr43   2.009       .  S
O30         Cr43   1.971       .  S
O30          C31   1.257       .  A
C31        C2181   1.479       .  S
O32         Cr41   1.970       .  S
O32          C40   1.257       .  A
O33         Cr41   2.015       .  S
O33          C34   1.265       .  A
C34          O35   1.262       .  A
C34        C2098   1.497       .  S
O35         Cr42   1.979       .  S
O36         Cr42   2.002       .  S
O36          C37   1.267       .  A
C37          O38   1.257       .  A
C37        C2085   1.469       .  S
O38         Cr43   1.961       .  S
O39         Cr43   2.020       .  S
O39          C40   1.270       .  A
C40        C2117   1.494       .  S
Cr41         O44   1.767       .  S
Cr42         O44   1.769       .  S
Cr43         O44   1.764       .  S
O45         Cr63   1.964       .  S
O45          C53   1.256       .  A
O46         Cr63   2.013       .  S
O46          C47   1.266       .  A
C47          O48   1.266       .  A
C47        C2034   1.507       .  S
O48         Cr64   1.994       .  S
O49         Cr64   2.027       .  S
O49          C50   1.270       .  A
C50          O51   1.253       .  A
C50        C1986   1.467       .  S
O51         Cr65   1.950       .  S
O52         Cr65   2.024       .  S
O52          C53   1.271       .  A
C53        C2050   1.491       .  S
O54         Cr63   2.027       .  S
O54          C62   1.268       .  A
O55         Cr63   1.951       .  S
O55          C56   1.259       .  A
C56          O57   1.269       .  A
C56        C1970   1.472       .  S
O57         Cr64   2.016       .  S
O58         Cr64   1.982       .  S
O58          C59   1.262       .  A
C59          O60   1.266       .  A
C59        C2018   1.500       .  S
O60         Cr65   2.017       .  S
O61         Cr65   1.967       .  S
O61          C62   1.256       .  A
C62        C2002   1.481       .  S
Cr63         O66   1.763       .  S
Cr64         O66   1.771       .  S
Cr65         O66   1.762       .  S
O67         Cr85   1.970       .  S
O67          C75   1.260       .  A
O68         Cr85   2.019       .  S
O68          C69   1.268       .  A
C69          O70   1.256       .  A
C69        C1938   1.484       .  S
O70         Cr86   1.965       .  S
O71         Cr86   2.005       .  S
O71          C72   1.267       .  A
C72          O73   1.258       .  A
C72        C2082   1.468       .  S
O73         Cr87   1.964       .  S
O74         Cr87   2.025       .  S
O74          C75   1.268       .  A
C75        C1954   1.495       .  S
O76         Cr85   2.023       .  S
O76          C84   1.269       .  A
O77         Cr85   1.955       .  S
O77          C78   1.257       .  A
C78          O79   1.268       .  A
C78        C1906   1.471       .  S
O79         Cr86   2.016       .  S
O80         Cr86   1.979       .  S
O80          C81   1.260       .  A
C81          O82   1.267       .  A
C81        C1922   1.499       .  S
O82         Cr87   2.013       .  S
O83         Cr87   1.969       .  S
O83          C84   1.258       .  A
C84        C2005   1.480       .  S
Cr85         O88   1.766       .  S
Cr86         O88   1.767       .  S
Cr87         O88   1.764       .  S
O89        Cr107   2.032       .  S
O89          C97   1.271       .  A
O90        Cr107   1.950       .  S
O90          C91   1.254       .  A
C91          O92   1.268       .  A
C91        C1813   1.478       .  S
O92        Cr108   2.013       .  S
O93        Cr108   1.985       .  S
O93          C94   1.262       .  A
C94          O95   1.265       .  A
C94        C1893   1.497       .  S
O95        Cr109   2.002       .  S
O96        Cr109   1.963       .  S
O96          C97   1.259       .  A
C97        C1842   1.502       .  S
O98        Cr107   1.974       .  S
O98         C106   1.260       .  A
O99        Cr107   2.025       .  S
O99         C100   1.270       .  A
C100        O101   1.259       .  A
C100       C1861   1.496       .  S
O101       Cr108   1.975       .  S
O102       Cr108   2.007       .  S
O102        C103   1.266       .  A
C103        O104   1.258       .  A
C103       C1826   1.470       .  S
O104       Cr109   1.959       .  S
O105       Cr109   2.015       .  S
O105        C106   1.266       .  A
C106       C1874   1.491       .  S
Cr107       O110   1.765       .  S
Cr108       O110   1.772       .  S
Cr109       O110   1.763       .  S
O111       Cr129   1.999       .  S
O111        C119   1.262       .  A
O112       Cr129   1.983       .  S
O112        C113   1.263       .  A
C113        O114   1.264       .  A
C113       C1746   1.485       .  S
O114       Cr130   1.989       .  S
O115       Cr130   1.990       .  S
O115        C116   1.262       .  A
C116        O117   1.265       .  A
C116       C1797   1.480       .  S
O117       Cr131   1.992       .  S
O118       Cr131   1.990       .  S
O118        C119   1.260       .  A
C119       C1845   1.487       .  S
O120       Cr129   2.013       .  S
O120        C128   1.266       .  A
O121       Cr129   1.996       .  S
O121        C122   1.265       .  A
C122        O123   1.262       .  A
C122       C1762   1.490       .  S
O123       Cr130   1.996       .  S
O124       Cr130   1.998       .  S
O124        C125   1.264       .  A
C125        O126   1.255       .  A
C125       C1989   1.456   1_556  S
O126       Cr131   1.960       .  S
O127       Cr131   1.966       .  S
O127        C128   1.256       .  A
C128       C1781   1.491       .  S
Cr129       O132   1.778       .  S
Cr130       O132   1.777       .  S
Cr131       O132   1.776       .  S
O133       Cr151   1.957       .  S
O133        C141   1.255       .  A
O134       Cr151   2.022       .  S
O134        C135   1.268       .  A
C135        O136   1.261       .  A
C135       C1717   1.497       .  S
O136       Cr152   1.975       .  S
O137       Cr152   2.012       .  S
O137        C138   1.268       .  A
C138        O139   1.257       .  A
C138       C1829   1.470       .  S
O139       Cr153   1.956       .  S
O140       Cr153   2.021       .  S
O140        C141   1.269       .  A
C141       C1730   1.486       .  S
O142       Cr151   2.025       .  S
O142        C150   1.269       .  A
O143       Cr151   1.949       .  S
O143        C144   1.254       .  A
C144        O145   1.269       .  A
C144       C1666   1.473       .  S
O145       Cr152   2.018       .  S
O146       Cr152   1.979       .  S
O146        C147   1.262       .  A
C147        O148   1.265       .  A
C147       C1698   1.492       .  S
O148       Cr153   2.011       .  S
O149       Cr153   1.963       .  S
O149        C150   1.256       .  A
C150       C1685   1.479       .  S
Cr151       O154   1.761       .  S
Cr152       O154   1.767       .  S
Cr153       O154   1.762       .  S
O155       Cr173   1.965   1_655  S
O155        C163   1.257       .  A
O156       Cr173   2.023   1_655  S
O156        C157   1.269       .  A
C157        O158   1.258       .  A
C157       C1634   1.488       .  S
O158       Cr174   1.968   1_655  S
O159       Cr174   1.995       .  S
O159        C160   1.263       .  A
C160        O161   1.258   1_455  A
C160       C2162   1.474   1_455  S
O161       Cr175   1.954   1_655  S
O162       Cr175   2.022   1_655  S
O162        C163   1.270       .  A
C163       C1653   1.492       .  S
O164       Cr173   2.021       .  S
O164        C172   1.268       .  A
O165       Cr173   1.952       .  S
O165        C166   1.256       .  A
C166        O167   1.265       .  A
C166       C1602   1.454       .  S
O167       Cr174   1.997       .  S
O168       Cr174   1.977       .  S
O168        C169   1.259       .  A
C169        O170   1.268       .  A
C169       C1618   1.498       .  S
O170       Cr175   2.016       .  S
O171       Cr175   1.966       .  S
O171        C172   1.256       .  A
C172       C1682   1.475       .  S
Cr173       O176   1.762       .  S
Cr174       O176   1.763       .  S
Cr175       O176   1.761       .  S
O177       Cr195   1.970       .  S
O177        C185   1.256       .  A
O178       Cr195   2.015   1_545  S
O178        C179   1.267       .  A
C179        O180   1.260   1_545  A
C179       C1794   1.489       .  S
O180       Cr196   1.976       .  S
O181       Cr196   2.005       .  S
O181        C182   1.267       .  A
C182        O183   1.257       .  A
C182       C1554   1.461       .  S
O183       Cr197   1.957       .  S
O184       Cr197   2.023       .  S
O184        C185   1.269       .  A
C185       C2053   1.496       .  S
O186       Cr195   2.027       .  S
O186        C194   1.270       .  A
O187       Cr195   1.956   1_545  S
O187        C188   1.259       .  A
C188        O189   1.267       .  A
C188       C1541   1.472       .  S
O189       Cr196   2.010   1_545  S
O190       Cr196   1.980       .  S
O190        C191   1.260       .  A
C191        O192   1.267       .  A
C191       C1589   1.499       .  S
O192       Cr197   2.014       .  S
O193       Cr197   1.967       .  S
O193        C194   1.258       .  A
C194       C1573   1.479       .  S
Cr195       O198   1.763       .  S
Cr196       O198   1.770       .  S
Cr197       O198   1.765       .  S
O199       Cr217   1.970   1_655  S
O199        C207   1.259       .  A
O200       Cr217   2.018   1_645  S
O200        C201   1.266       .  A
C201        O202   1.261   1_545  A
C201       C2130   1.494       .  S
O202       Cr218   1.979   1_655  S
O203       Cr218   2.001       .  S
O203        C204   1.266       .  A
C204        O205   1.257   1_455  A
C204       C1509   1.466   1_455  S
O205       Cr219   1.957   1_655  S
O206       Cr219   2.024   1_655  S
O206        C207   1.269       .  A
C207       C1957   1.494       .  S
O208       Cr217   2.025       .  S
O208        C216   1.269       .  A
O209       Cr217   1.952   1_545  S
O209        C210   1.258       .  A
C210        O211   1.266       .  A
C210       C1490   1.462       .  S
O211       Cr218   2.006   1_545  S
O212       Cr218   1.984       .  S
O212        C213   1.263       .  A
C213        O214   1.264       .  A
C213       C1522   1.498       .  S
O214       Cr219   2.011       .  S
O215       Cr219   1.968       .  S
O215        C216   1.256       .  A
C216       C1570   1.483       .  S
Cr217       O220   1.768       .  S
Cr218       O220   1.771       .  S
Cr219       O220   1.764       .  S
O221       Cr239   2.030       .  S
O221        C229   1.271       .  A
O222       Cr239   1.957       .  S
O222        C223   1.257       .  A
C223        O224   1.266       .  A
C223       C2069   1.463       .  S
O224       Cr240   2.006       .  S
O225       Cr240   1.980       .  S
O225        C226   1.261       .  A
C226        O227   1.267       .  A
C226       C1941   1.495       .  S
O227       Cr241   2.007       .  S
O228       Cr241   1.964       .  S
O228        C229   1.256       .  A
C229       C1442   1.486       .  S
O230       Cr239   1.968   1_455  S
O230        C238   1.256       .  A
O231       Cr239   2.025   1_455  S
O231        C232   1.270       .  A
C232        O233   1.258   1_455  A
C232       C1458   1.492       .  S
O233       Cr240   1.968       .  S
O234       Cr240   2.000       .  S
O234        C235   1.266       .  A
C235        O236   1.257       .  A
C235       C1506   1.469       .  S
O236       Cr241   1.964       .  S
O237       Cr241   2.015   1_455  S
O237        C238   1.268       .  A
C238       C1477   1.490       .  S
Cr239       O242   1.765       .  S
Cr240       O242   1.767       .  S
Cr241       O242   1.764       .  S
O243       Cr261   2.028       .  S
O243        C251   1.269       .  A
O244       Cr261   1.947       .  S
O244        C245   1.258       .  A
C245        O246   1.264       .  A
C245       C2149   1.466       .  S
O246       Cr262   1.999       .  S
O247       Cr262   1.980       .  S
O247        C248   1.260       .  A
C248        O249   1.269       .  A
C248       C1637   1.498       .  S
O249       Cr263   2.012       .  S
O250       Cr263   1.967       .  S
O250        C251   1.255       .  A
C251       C1445   1.480       .  S
O252       Cr261   1.956       .  S
O252        C260   1.254       .  A
O253       Cr261   2.023       .  S
O253        C254   1.269       .  A
C254        O255   1.260       .  A
C254       C1410   1.489       .  S
O255       Cr262   1.978       .  S
O256       Cr262   1.998       .  S
O256        C257   1.262       .  A
C257        O258   1.258       .  A
C257       C1394   1.478       .  S
O258       Cr263   1.957       .  S
O259       Cr263   2.027       .  S
O259        C260   1.272       .  A
C260       C1426   1.493       .  S
Cr261       O264   1.764       .  S
Cr262       O264   1.767       .  S
Cr263       O264   1.761       .  S
O265       Cr283   1.962       .  S
O265        C273   1.256       .  A
O266       Cr283   2.017   1_545  S
O266        C267   1.267       .  A
C267        O268   1.259   1_545  A
C267       C1890   1.484       .  S
O268       Cr284   1.974       .  S
O269       Cr284   2.004       .  S
O269        C270   1.267       .  A
C270        O271   1.260       .  A
C270       C1346   1.470       .  S
O271       Cr285   1.968       .  S
O272       Cr285   2.019       .  S
O272        C273   1.269       .  A
C273       C1733   1.485       .  S
O274       Cr283   2.019       .  S
O274        C282   1.267       .  A
O275       Cr283   1.951   1_545  S
O275        C276   1.257       .  A
C276        O277   1.267       .  A
C276       C1330   1.475       .  S
O277       Cr284   2.014   1_545  S
O278       Cr284   1.982       .  S
O278        C279   1.261       .  A
C279        O280   1.266       .  A
C279       C1378   1.498       .  S
O280       Cr285   2.008       .  S
O281       Cr285   1.966       .  S
O281        C282   1.258       .  A
C282       C1362   1.476       .  S
Cr283       O286   1.768       .  S
Cr284       O286   1.766       .  S
Cr285       O286   1.765       .  S
O287       Cr305   1.965       .  S
O287        C295   1.256       .  A
O288       Cr305   2.010   1_545  S
O288        C289   1.264       .  A
C289        O290   1.262   1_545  A
C289       C2226   1.498       .  S
O290       Cr306   1.981       .  S
O291       Cr306   2.004       .  S
O291        C292   1.266       .  A
C292        O293   1.258       .  A
C292       C1397   1.479       .  S
O293       Cr307   1.954       .  S
O294       Cr307   2.021       .  S
O294        C295   1.270       .  A
C295       C1650   1.490       .  S
O296       Cr305   2.019       .  S
O296        C304   1.267       .  A
O297       Cr305   1.949   1_545  S
O297        C298   1.255       .  A
C298        O299   1.269       .  A
C298       C1298   1.470       .  S
O299       Cr306   2.013   1_545  S
O300       Cr306   1.991       .  S
O300        C301   1.265       .  A
C301        O302   1.263       .  A
C301       C1314   1.504       .  S
O302       Cr307   2.007       .  S
O303       Cr307   1.967       .  S
O303        C304   1.257       .  A
C304       C1365   1.476       .  S
Cr305       O308   1.765       .  S
Cr306       O308   1.769       .  S
Cr307       O308   1.761       .  S
O309       Cr327   2.020       .  S
O309        C317   1.267       .  A
O310       Cr327   1.949       .  S
O310        C311   1.259       .  A
C311        O312   1.268       .  A
C311       C1810   1.474       .  S
O312       Cr328   2.013       .  S
O313       Cr328   1.984       .  S
O313        C314   1.264       .  A
C314        O315   1.264       .  A
C314       C1714   1.500       .  S
O315       Cr329   2.008       .  S
O316       Cr329   1.972       .  S
O316        C317   1.258       .  A
C317       C1250   1.482       .  S
O318       Cr327   1.965       .  S
O318        C326   1.257       .  A
O319       Cr327   2.012       .  S
O319        C320   1.265       .  A
C320        O321   1.259       .  A
C320       C1266   1.484       .  S
O321       Cr328   1.977       .  S
O322       Cr328   2.001       .  S
O322        C323   1.266       .  A
C323        O324   1.258       .  A
C323       C1349   1.468       .  S
O324       Cr329   1.965       .  S
O325       Cr329   2.020       .  S
O325        C326   1.270       .  A
C326       C1285   1.489       .  S
Cr327       O330   1.767       .  S
Cr328       O330   1.768       .  S
Cr329       O330   1.763       .  S
O331       Cr349   2.025       .  S
O331        C339   1.270       .  A
O332       Cr349   1.955       .  S
O332        C333   1.258       .  A
C333        O334   1.269       .  A
C333       C1749   1.473       .  S
O334       Cr350   2.016       .  S
O335       Cr350   1.991       .  S
O335        C336   1.265       .  A
C336        O337   1.265       .  A
C336       C2037   1.504       .  S
O337       Cr351   2.015       .  S
O338       Cr351   1.966       .  S
O338        C339   1.258       .  A
C339       C1253   1.477       .  S
O340       Cr349   1.976       .  S
O340        C348   1.261       .  A
O341       Cr349   2.018       .  S
O341        C342   1.267       .  A
C342        O343   1.258       .  A
C342       C1221   1.485       .  S
O343       Cr350   1.978       .  S
O344       Cr350   2.002       .  S
O344        C345   1.266       .  A
C345        O346   1.256       .  A
C345       C1557   1.459       .  S
O346       Cr351   1.958       .  S
O347       Cr351   2.023       .  S
O347        C348   1.267       .  A
C348       C1234   1.496       .  S
Cr349       O352   1.767       .  S
Cr350       O352   1.770       .  S
Cr351       O352   1.764       .  S
O353       Cr371   1.967       .  S
O353        C361   1.257       .  A
O354       Cr371   2.025       .  S
O354        C355   1.267       .  A
C355        O356   1.259       .  A
C355       C1186   1.487       .  S
O356       Cr372   1.976       .  S
O357       Cr372   2.008       .  S
O357        C358   1.267       .  A
C358        O359   1.255       .  A
C358       C1154   1.471       .  S
O359       Cr373   1.956       .  S
O360       Cr373   2.020       .  S
O360        C361   1.270       .  A
C361       C1202   1.492       .  S
O362       Cr371   2.026       .  S
O362        C370   1.269       .  A
O363       Cr371   1.949       .  S
O363        C364   1.256       .  A
C364        O365   1.269       .  A
C364       C1973   1.467       .  S
O365       Cr372   2.014       .  S
O366       Cr372   1.979       .  S
O366        C367   1.262       .  A
C367        O368   1.266       .  A
C367       C1765   1.486       .  S
O368       Cr373   2.017       .  S
O369       Cr373   1.962       .  S
O369        C370   1.257       .  A
C370       C1173   1.489       .  S
Cr371       O374   1.767       .  S
Cr372       O374   1.767       .  S
Cr373       O374   1.763       .  S
O375       Cr393   1.969       .  S
O375        C383   1.257       .  A
O376       Cr393   2.007       .  S
O376        C377   1.264       .  A
C377        O378   1.261       .  A
C377       C1122   1.486       .  S
O378       Cr394   1.978       .  S
O379       Cr394   2.010       .  S
O379        C380   1.266       .  A
C380        O381   1.258       .  A
C380       C1109   1.482       .  S
O381       Cr395   1.956       .  S
O382       Cr395   2.026       .  S
O382        C383   1.270       .  A
C383       C1138   1.497       .  S
O384       Cr393   2.018       .  S
O384        C392   1.267       .  A
O385       Cr393   1.960       .  S
O385        C386   1.260       .  A
C386        O387   1.268       .  A
C386       C1909   1.477       .  S
O387       Cr394   2.014       .  S
O388       Cr394   1.984       .  S
O388        C389   1.263       .  A
C389        O390   1.265       .  A
C389       C2101   1.499       .  S
O390       Cr395   2.009       .  S
O391       Cr395   1.967       .  S
O391        C392   1.256       .  A
C392       C1170   1.470       .  S
Cr393       O396   1.767       .  S
Cr394       O396   1.769       .  S
Cr395       O396   1.763       .  S
O397       Cr415   2.024       .  S
O397        C405   1.269       .  A
O398       Cr415   1.951   1_565  S
O398        C399   1.258       .  A
C399        O400   1.265       .  A
C399       C1042   1.470       .  S
O400       Cr416   2.005   1_565  S
O401       Cr416   1.978       .  S
O401        C402   1.262       .  A
C402        O403   1.264       .  A
C402       C1090   1.490       .  S
O403       Cr417   2.011       .  S
O404       Cr417   1.967       .  S
O404        C405   1.257       .  A
C405       C1074   1.480       .  S
O406       Cr415   1.966       .  S
O406        C414   1.259       .  A
O407       Cr415   2.017   1_565  S
O407        C408   1.268   1_565  A
C408        O409   1.258       .  A
C408       C1621   1.493   1_545  S
O409       Cr416   1.974       .  S
O410       Cr416   1.999       .  S
O410        C411   1.264       .  A
C411        O412   1.257       .  A
C411       C1058   1.466       .  S
O412       Cr417   1.956       .  S
O413       Cr417   2.020       .  S
O413        C414   1.267       .  A
C414       C2210   1.491       .  S
Cr415       O418   1.763       .  S
Cr416       O418   1.768       .  S
Cr417       O418   1.763       .  S
O419       Cr437   2.030       .  S
O419        C427   1.270       .  A
O420       Cr437   1.955   1_565  S
O420        C421   1.258       .  A
C421        O422   1.267       .  A
C421       C1013   1.470       .  S
O422       Cr438   2.010   1_565  S
O423       Cr438   1.979       .  S
O423        C424   1.262       .  A
C424        O425   1.265       .  A
C424       C1026   1.488       .  S
O425       Cr439   2.012       .  S
O426       Cr439   1.961       .  S
O426        C427   1.255       .  A
C427       C1077   1.481       .  S
O428       Cr437   1.964       .  S
O428        C436   1.255       .  A
O429       Cr437   2.024   1_565  S
O429        C430   1.269       .  A
C430        O431   1.259   1_565  A
C430       C1925   1.489       .  S
O431       Cr438   1.972       .  S
O432       Cr438   2.008       .  S
O432        C433   1.265       .  A
C433        O434   1.257       .  A
C433       C1106   1.482       .  S
O434       Cr439   1.956       .  S
O435       Cr439   2.021       .  S
O435        C436   1.269       .  A
C436       C2114   1.492       .  S
Cr437       O440   1.766       .  S
Cr438       O440   1.766       .  S
Cr439       O440   1.764       .  S
O441       Cr459   1.966   1_655  S
O441        C449   1.257       .  A
O442       Cr459   2.010   1_655  S
O442        C443   1.266       .  A
C443        O444   1.260       .  A
C443        C978   1.490       .  S
O444       Cr460   1.979   1_655  S
O445       Cr460   2.006       .  S
O445        C446   1.266       .  A
C446        O447   1.257   1_455  A
C446        C946   1.465   1_455  S
O447       Cr461   1.959   1_655  S
O448       Cr461   2.023   1_655  S
O448        C449   1.271       .  A
C449        C994   1.490       .  S
O450       Cr459   2.022       .  S
O450        C458   1.267       .  A
O451       Cr459   1.956       .  S
O451        C452   1.260       .  A
C452        O453   1.267       .  A
C452       C1669   1.471       .  S
O453       Cr460   2.010       .  S
O454       Cr460   1.981       .  S
O454        C455   1.260       .  A
C455        O456   1.268       .  A
C455       C1858   1.502       .  S
O456       Cr461   2.014       .  S
O457       Cr461   1.972       .  S
O457        C458   1.258       .  A
C458        C962   1.482       .  S
Cr459       O462   1.767       .  S
Cr460       O462   1.768       .  S
Cr461       O462   1.764       .  S
O463       Cr481   1.961       .  S
O463        C471   1.255       .  A
O464       Cr481   2.026       .  S
O464        C465   1.270       .  A
C465        O466   1.259       .  A
C465        C914   1.494       .  S
O466       Cr482   1.975       .  S
O467       Cr482   1.999       .  S
O467        C468   1.264       .  A
C468        O469   1.256       .  A
C468       C1061   1.465       .  S
O469       Cr483   1.955       .  S
O470       Cr483   2.027       .  S
O470        C471   1.271       .  A
C471        C930   1.493       .  S
O472       Cr481   2.029       .  S
O472        C480   1.270       .  A
O473       Cr481   1.949       .  S
O473        C474   1.257       .  A
C474        O475   1.265       .  A
C474       C1605   1.458       .  S
O475       Cr482   2.000       .  S
O476       Cr482   1.981       .  S
O476        C477   1.263       .  A
C477        O478   1.267       .  A
C477       C2197   1.496       .  S
O478       Cr483   2.019       .  S
O479       Cr483   1.966       .  S
O479        C480   1.256       .  A
C480        C965   1.480       .  S
Cr481       O484   1.764       .  S
Cr482       O484   1.767       .  S
Cr483       O484   1.761       .  S
O485       Cr503   2.023       .  S
O485        C493   1.268       .  A
O486       Cr503   1.954   1_565  S
O486        C487   1.256       .  A
C487        O488   1.270       .  A
C487        C866   1.477       .  S
O488       Cr504   2.017   1_565  S
O489       Cr504   1.984       .  S
O489        C490   1.263       .  A
C490        O491   1.264       .  A
C490        C901   1.499       .  S
O491       Cr505   2.005       .  S
O492       Cr505   1.974       .  S
O492        C493   1.259       .  A
C493        C885   1.481       .  S
O494       Cr503   1.968   1_455  S
O494        C502   1.260       .  A
O495       Cr503   2.016   1_465  S
O495        C496   1.266       .  A
C496        O497   1.260   1_565  A
C496       C1701   1.498       .  S
O497       Cr504   1.974   1_455  S
O498       Cr504   2.008       .  S
O498        C499   1.267       .  A
C499        O500   1.258       .  A
C499        C949   1.467       .  S
O500       Cr505   1.965       .  S
O501       Cr505   2.018   1_455  S
O501        C502   1.267       .  A
C502       C1877   1.493       .  S
Cr503       O506   1.764       .  S
Cr504       O506   1.771       .  S
Cr505       O506   1.762       .  S
O507       Cr525   2.025       .  S
O507        C515   1.269       .  A
O508       Cr525   1.952   1_565  S
O508        C509   1.257       .  A
C509        O510   1.268       .  A
C509        C834   1.471       .  S
O510       Cr526   2.017   1_565  S
O511       Cr526   1.980       .  S
O511        C512   1.261       .  A
C512        O513   1.267       .  A
C512        C853   1.496       .  S
O513       Cr527   2.010       .  S
O514       Cr527   1.970       .  S
O514        C515   1.257       .  A
C515        C882   1.483       .  S
O516       Cr525   1.961       .  S
O516        C524   1.258       .  A
O517       Cr525   2.021   1_565  S
O517        C518   1.267       .  A
C518        O519   1.261   1_565  A
C518       C2021   1.499       .  S
O519       Cr526   1.976       .  S
O520       Cr526   2.007       .  S
O520        C521   1.268       .  A
C521        O522   1.257       .  A
C521       C1157   1.472       .  S
O522       Cr527   1.964       .  S
O523       Cr527   2.023       .  S
O523        C524   1.268       .  A
C524       C1778   1.493       .  S
Cr525       O528   1.764       .  S
Cr526       O528   1.769       .  S
Cr527       O528   1.765       .  S
O529       Cr547   2.023       .  S
O529        C537   1.267       .  A
O530       Cr547   1.956       .  S
O530        C531   1.258       .  A
C531        O532   1.268       .  A
C531        C837   1.466       .  S
O532       Cr548   2.012       .  S
O533       Cr548   1.983       .  S
O533        C534   1.260       .  A
C534        O535   1.268       .  A
C534       C1189   1.499       .  S
O535       Cr549   2.015       .  S
O536       Cr549   1.971       .  S
O536        C537   1.256       .  A
C537        C818   1.481       .  S
O538       Cr547   1.969   1_455  S
O538        C546   1.260       .  A
O539       Cr547   2.016   1_455  S
O539        C540   1.267       .  A
C540        O541   1.258       .  A
C540       C1586   1.492       .  S
O541       Cr548   1.976   1_455  S
O542       Cr548   2.003       .  S
O542        C543   1.267       .  A
C543        O544   1.256       .  A
C543        C802   1.467       .  S
O544       Cr549   1.957       .  S
O545       Cr549   2.036   1_455  S
O545        C546   1.273       .  A
C546       C1237   1.500       .  S
Cr547       O550   1.770       .  S
Cr548       O550   1.771       .  S
Cr549       O550   1.766       .  S
O551       Cr569   2.028       .  S
O551        C559   1.269       .  A
O552       Cr569   1.952       .  S
O552        C553   1.259       .  A
C553        O554   1.268       .  A
C553        C869   1.475       .  S
O554       Cr570   2.017       .  S
O555       Cr570   1.977       .  S
O555        C556   1.260       .  A
C556        O557   1.266       .  A
C556        C981   1.496       .  S
O557       Cr571   2.010       .  S
O558       Cr571   1.965       .  S
O558        C559   1.257       .  A
C559        C821   1.482       .  S
O560       Cr569   1.966       .  S
O560        C568   1.257       .  A
O561       Cr569   2.019       .  S
O561        C562   1.268       .  A
C562        O563   1.259       .  A
C562       C1381   1.489       .  S
O563       Cr570   1.977       .  S
O564       Cr570   2.011       .  S
O564        C565   1.268       .  A
C565        O566   1.257       .  A
C565        C786   1.473       .  S
O566       Cr571   1.961       .  S
O567       Cr571   2.020       .  S
O567        C568   1.270       .  A
C568       C1282   1.489       .  S
Cr569       O572   1.766       .  S
Cr570       O572   1.766       .  S
Cr571       O572   1.764       .  S
O573       Cr591   1.967   1_655  S
O573        C581   1.257       .  A
O574       Cr591   2.015   1_655  S
O574        C575   1.266       .  A
C575        O576   1.258       .  A
C575        C850   1.482       .  S
O576       Cr592   1.974   1_655  S
O577       Cr592   2.006       .  S
O577        C578   1.267       .  A
C578        O579   1.254   1_455  A
C578        C805   1.464   1_455  S
O579       Cr593   1.954   1_655  S
O580       Cr593   2.021   1_655  S
O580        C581   1.270       .  A
C581       C1205   1.491       .  S
O582       Cr591   2.022       .  S
O582        C590   1.268       .  A
O583       Cr591   1.956       .  S
O583        C584   1.258       .  A
C584        O585   1.269       .  A
C584       C1538   1.466       .  S
O585       Cr592   2.014       .  S
O586       Cr592   1.979       .  S
O586        C587   1.260       .  A
C587        O588   1.268       .  A
C587       C1218   1.497       .  S
O588       Cr593   2.016       .  S
O589       Cr593   1.969       .  S
O589        C590   1.257       .  A
C590        C770   1.474       .  S
Cr591       O594   1.766       .  S
Cr592       O594   1.765       .  S
Cr593       O594   1.763       .  S
O595       Cr613   1.967       .  S
O595        C603   1.257       .  A
O596       Cr613   2.010       .  S
O596        C597   1.265       .  A
C597        O598   1.262       .  A
C597       C1029   1.498       .  S
O598       Cr614   1.980       .  S
O599       Cr614   2.008       .  S
O599        C600   1.268       .  A
C600        O601   1.257       .  A
C600        C754   1.470       .  S
O601       Cr615   1.956       .  S
O602       Cr615   2.026       .  S
O602        C603   1.272       .  A
C603       C1141   1.495       .  S
O604       Cr613   2.020       .  S
O604        C612   1.267       .  A
O605       Cr613   1.954       .  S
O605        C606   1.258       .  A
C606        O607   1.267       .  A
C606       C1493   1.460       .  S
O607       Cr614   2.008       .  S
O608       Cr614   1.979       .  S
O608        C609   1.260       .  A
C609        O610   1.268       .  A
C609       C1461   1.499       .  S
O610       Cr615   2.012       .  S
O611       Cr615   1.971       .  S
O611        C612   1.257       .  A
C612        C773   1.487       .  S
Cr613       O616   1.765       .  S
Cr614       O616   1.769       .  S
Cr615       O616   1.763       .  S
O617       Cr635   2.025       .  S
O617        C625   1.270       .  A
O618       Cr635   1.956       .  S
O618        C619   1.257       .  A
C619        O620   1.268       .  A
C619       C1010   1.467       .  S
O620       Cr636   2.011       .  S
O621       Cr636   1.983       .  S
O621        C622   1.263       .  A
C622        O623   1.263       .  A
C622       C1125   1.496       .  S
O623       Cr637   2.005       .  S
O624       Cr637   1.966       .  S
O624        C625   1.256       .  A
C625        C738   1.486       .  S
O626       Cr635   1.968       .  S
O626        C634   1.257       .  A
O627       Cr635   2.018       .  S
O627        C628   1.267       .  A
C628        O629   1.262       .  A
C628       C1525   1.502       .  S
O629       Cr636   1.980       .  S
O630       Cr636   2.009       .  S
O630        C631   1.268       .  A
C631        O632   1.257       .  A
C631        C757   1.474       .  S
O632       Cr637   1.961       .  S
O633       Cr637   2.015       .  S
O633        C634   1.268       .  A
C634       C1474   1.492       .  S
Cr635       O638   1.765       .  S
Cr636       O638   1.768       .  S
Cr637       O638   1.765       .  S
O639       Cr657   2.027       .  S
O639        C647   1.269       .  A
O640       Cr657   1.947       .  S
O640        C641   1.253       .  A
C641        O642   1.269       .  A
C641       C1045   1.473       .  S
O642       Cr658   2.014       .  S
O643       Cr658   1.984       .  S
O643        C644   1.262       .  A
C644        O645   1.268       .  A
C644        C917   1.502       .  S
O645       Cr659   2.015       .  S
O646       Cr659   1.966       .  S
O646        C647   1.256       .  A
C647        C741   1.476       .  S
O648       Cr657   1.962       .  S
O648        C656   1.256       .  A
O649       Cr657   2.024       .  S
O649        C650   1.268       .  A
C650        O651   1.262       .  A
C650       C1317   1.499       .  S
O651       Cr658   1.979       .  S
O652       Cr658   2.009       .  S
O652        C653   1.268       .  A
C653        O654   1.255       .  A
C653        C725   1.467       .  S
O654       Cr659   1.953       .  S
O655       Cr659   2.024       .  S
O655        C656   1.271       .  A
C656       C1429   1.489       .  S
Cr657       O660   1.763       .  S
Cr658       O660   1.769       .  S
Cr659       O660   1.760       .  S
O661       Cr679   1.965       .  S
O661        C669   1.256       .  A
O662       Cr679   2.021       .  S
O662        C663   1.267       .  A
C663        O664   1.261       .  A
C663        C898   1.494       .  S
O664       Cr680   1.971       .  S
O665       Cr680   2.005       .  S
O665        C666   1.266       .  A
C666        O667   1.256       .  A
C666        C789   1.472       .  S
O667       Cr681   1.964       .  S
O668       Cr681   2.019       .  S
O668        C669   1.270       .  A
C669        C997   1.495       .  S
O670       Cr679   2.025       .  S
O670        C678   1.269       .  A
O671       Cr679   1.961       .  S
O671        C672   1.258       .  A
C672        O673   1.267       .  A
C672       C1333   1.469       .  S
O673       Cr680   2.007       .  S
O674       Cr680   1.977       .  S
O674        C675   1.261       .  A
C675        O676   1.268       .  A
C675       C1269   1.496       .  S
O676       Cr681   2.013       .  S
O677       Cr681   1.969       .  S
O677        C678   1.257       .  A
C678        C706   1.483       .  S
Cr679       O682   1.767       .  S
Cr680       O682   1.764       .  S
Cr681       O682   1.764       .  S
O683       Cr701   1.965       .  S
O683        C691   1.257       .  A
O684       Cr701   2.011       .  S
O684        C685   1.264       .  A
C685        O686   1.261       .  A
C685       C1093   1.498       .  S
O686       Cr702   1.979       .  S
O687       Cr702   1.997       .  S
O687        C688   1.266       .  A
C688        O689   1.256       .  A
C688        C722   1.465       .  S
O689       Cr703   1.961       .  S
O690       Cr703   2.025       .  S
O690        C691   1.271       .  A
C691        C933   1.492       .  S
O692       Cr701   2.020       .  S
O692        C700   1.267       .  A
O693       Cr701   1.956       .  S
O693        C694   1.260       .  A
C694        O695   1.266       .  A
C694       C1301   1.467       .  S
O695       Cr702   2.003       .  S
O696       Cr702   1.982       .  S
O696        C697   1.261       .  A
C697        O698   1.268       .  A
C697       C1413   1.500       .  S
O698       Cr703   2.018       .  S
O699       Cr703   1.975       .  S
O699        C700   1.258       .  A
C700        C709   1.479       .  S
Cr701       O704   1.765       .  S
Cr702       O704   1.768       .  S
Cr703       O704   1.764       .  S
C705        C706   1.406       .  A
C705        C710   1.405       .  A
C705        H712   1.084       .  S
C706        C707   1.414       .  A
C707        C708   1.407       .  A
C707        C714   1.507       .  S
C708        C709   1.404       .  A
C708        H713   1.084       .  S
C709        C710   1.412       .  A
C710        C711   1.507       .  S
C711        H715   1.111       .  S
C711        H716   1.110       .  S
C711        H717   1.111       .  S
C714        H718   1.110       .  S
C714        H719   1.111       .  S
C714        H720   1.111       .  S
C721        C722   1.404       .  A
C721        C726   1.395       .  A
C721        H728   1.084       .  S
C722        C723   1.411       .  A
C723        C724   1.399       .  A
C723        C730   1.509       .  S
C724        C725   1.407       .  A
C724        H729   1.084       .  S
C725        C726   1.412       .  A
C726        C727   1.508       .  S
C727        H731   1.111       .  S
C727        H732   1.110       .  S
C727        H733   1.106       .  S
C730        H734   1.108       .  S
C730        H735   1.110       .  S
C730        H736   1.111       .  S
C737        C738   1.404       .  A
C737        C742   1.406       .  A
C737        H744   1.084       .  S
C738        C739   1.421       .  A
C739        C740   1.406       .  A
C739        C746   1.508       .  S
C740        C741   1.399       .  A
C740        H745   1.084       .  S
C741        C742   1.414       .  A
C742        C743   1.508       .  S
C743        H747   1.111       .  S
C743        H748   1.110       .  S
C743        H749   1.110       .  S
C746        H750   1.108       .  S
C746        H751   1.110       .  S
C746        H752   1.111       .  S
C753        C754   1.407       .  A
C753        C758   1.400       .  A
C753        H760   1.084       .  S
C754        C755   1.412       .  A
C755        C756   1.398       .  A
C755        C762   1.510       .  S
C756        C757   1.407       .  A
C756        H761   1.085       .  S
C757        C758   1.414       .  A
C758        C759   1.509       .  S
C759        H763   1.111       .  S
C759        H764   1.110       .  S
C759        H765   1.108       .  S
C762        H766   1.110       .  S
C762        H767   1.107       .  S
C762        H768   1.111       .  S
C769        C770   1.402       .  A
C769        C774   1.406       .  A
C769        H776   1.084       .  S
C770        C771   1.409       .  A
C771        C772   1.404       .  A
C771        C778   1.507       .  S
C772        C773   1.409       .  A
C772        H777   1.084       .  S
C773        C774   1.417       .  A
C774        C775   1.507       .  S
C775        H779   1.111       .  S
C775        H780   1.110       .  S
C775        H781   1.110       .  S
C778        H782   1.110       .  S
C778        H783   1.111       .  S
C778        H784   1.111       .  S
C785        C786   1.408       .  A
C785        C790   1.401       .  A
C785        H792   1.084       .  S
C786        C787   1.411       .  A
C787        C788   1.398       .  A
C787        C794   1.508       .  S
C788        C789   1.406       .  A
C788        H793   1.084       .  S
C789        C790   1.412       .  A
C790        C791   1.509       .  S
C791        H795   1.111       .  S
C791        H796   1.108       .  S
C791        H797   1.110       .  S
C794        H798   1.110       .  S
C794        H799   1.107       .  S
C794        H800   1.111       .  S
C801        C802   1.399   1_554  A
C801        C806   1.397       .  A
C801        H808   1.085       .  S
C802        C803   1.420       .  A
C803        C804   1.397       .  A
C803        C810   1.508       .  S
C804        C805   1.396   1_556  A
C804        H809   1.085       .  S
C805        C806   1.417       .  A
C806        C807   1.509   1_655  S
C807        H811   1.111       .  S
C807        H812   1.109       .  S
C807        H813   1.110   1_455  S
C810        H814   1.101       .  S
C810        H815   1.107       .  S
C810        H816   1.111       .  S
C817        C818   1.407       .  A
C817        C822   1.407       .  A
C817        H824   1.084       .  S
C818        C819   1.412       .  A
C819        C820   1.405       .  A
C819        C826   1.507       .  S
C820        C821   1.406       .  A
C820        H825   1.084       .  S
C821        C822   1.412       .  A
C822        C823   1.506       .  S
C823        H827   1.111       .  S
C823        H828   1.110       .  S
C823        H829   1.110       .  S
C826        H830   1.111       .  S
C826        H831   1.110       .  S
C826        H832   1.111       .  S
C833        C834   1.405       .  A
C833        C838   1.395       .  A
C833        H840   1.084       .  S
C834        C835   1.412       .  A
C835        C836   1.403       .  A
C835        C842   1.506       .  S
C836        C837   1.405       .  A
C836        H841   1.084       .  S
C837        C838   1.410       .  A
C838        C839   1.510       .  S
C839        H843   1.111       .  S
C839        H844   1.111       .  S
C839        H845   1.109       .  S
C842        H846   1.109   1_556  S
C842        H847   1.110       .  S
C842        H848   1.111   1_556  S
C849        C850   1.404       .  A
C849        C854   1.406   1_554  A
C849        H856   1.084       .  S
C850        C851   1.412   1_554  A
C851        C852   1.404       .  A
C851        C858   1.509       .  S
C852        C853   1.412       .  A
C852        H857   1.083       .  S
C853        C854   1.420       .  A
C854        C855   1.507       .  S
C855        H859   1.111   1_556  S
C855        H860   1.110       .  S
C855        H861   1.110   1_556  S
C858        H862   1.109       .  S
C858        H863   1.110   1_556  S
C858        H864   1.111       .  S
C865        C866   1.405       .  A
C865        C870   1.404       .  A
C865        H872   1.084       .  S
C866        C867   1.419       .  A
C867        C868   1.395       .  A
C867        C874   1.511       .  S
C868        C869   1.400       .  A
C868        H873   1.085       .  S
C869        C870   1.415       .  A
C870        C871   1.506       .  S
C871        H875   1.111       .  S
C871        H876   1.107       .  S
C871        H877   1.110       .  S
C874        H878   1.110       .  S
C874        H879   1.111       .  S
C874        H880   1.111       .  S
C881        C882   1.403       .  A
C881        C886   1.407       .  A
C881        H888   1.084       .  S
C882        C883   1.418       .  A
C883        C884   1.406       .  A
C883        C890   1.509       .  S
C884        C885   1.402       .  A
C884        H889   1.084       .  S
C885        C886   1.415       .  A
C886        C887   1.508       .  S
C887        H891   1.111       .  S
C887        H892   1.111       .  S
C887        H893   1.109       .  S
C890        H894   1.111       .  S
C890        H895   1.109       .  S
C890        H896   1.111       .  S
C897        C898   1.403       .  A
C897        C902   1.403       .  A
C897        H904   1.084       .  S
C898        C899   1.419       .  A
C899        C900   1.409       .  A
C899        C906   1.508       .  S
C900        C901   1.409       .  A
C900        H905   1.084       .  S
C901        C902   1.424       .  A
C902        C903   1.511       .  S
C903        H907   1.111       .  S
C903        H908   1.109       .  S
C903        H909   1.110       .  S
C906        H910   1.110       .  S
C906        H911   1.110       .  S
C906        H912   1.111       .  S
C913        C914   1.406       .  A
C913        C918   1.410       .  A
C913        H920   1.084       .  S
C914        C915   1.416       .  A
C915        C916   1.405       .  A
C915        C922   1.508       .  S
C916        C917   1.410       .  A
C916        H921   1.083       .  S
C917        C918   1.422       .  A
C918        C919   1.508       .  S
C919        H923   1.111       .  S
C919        H924   1.110       .  S
C919        H925   1.110       .  S
C922        H926   1.109       .  S
C922        H927   1.111       .  S
C922        H928   1.111       .  S
C929        C930   1.405       .  A
C929        C934   1.407       .  A
C929        H936   1.084       .  S
C930        C931   1.422       .  A
C931        C932   1.405       .  A
C931        C938   1.509       .  S
C932        C933   1.403       .  A
C932        H937   1.084       .  S
C933        C934   1.420       .  A
C934        C935   1.509       .  S
C935        H939   1.111       .  S
C935        H940   1.110       .  S
C935        H941   1.109       .  S
C938        H942   1.110       .  S
C938        H943   1.109       .  S
C938        H944   1.111       .  S
C945        C946   1.407   1_455  A
C945        C950   1.400       .  A
C945        H952   1.085       .  S
C946        C947   1.411       .  A
C947        C948   1.397       .  A
C947        C954   1.509       .  S
C948        C949   1.405       .  A
C948        H953   1.085       .  S
C949        C950   1.410   1_655  A
C950        C951   1.509       .  S
C951        H955   1.111       .  S
C951        H956   1.110       .  S
C951        H957   1.107       .  S
C954        H958   1.110       .  S
C954        H959   1.108       .  S
C954        H960   1.111       .  S
C961        C962   1.405       .  A
C961        C966   1.405       .  A
C961        H968   1.084       .  S
C962        C963   1.414       .  A
C963        C964   1.406       .  A
C963        C970   1.507       .  S
C964        C965   1.406       .  A
C964        H969   1.084       .  S
C965        C966   1.411       .  A
C966        C967   1.507       .  S
C967        H971   1.111       .  S
C967        H972   1.110       .  S
C967        H973   1.111       .  S
C970        H974   1.110       .  S
C970        H975   1.111       .  S
C970        H976   1.111       .  S
C977        C978   1.406       .  A
C977        C982   1.404       .  A
C977        H984   1.083       .  S
C978        C979   1.415       .  A
C979        C980   1.405       .  A
C979        C986   1.509       .  S
C980        C981   1.411       .  A
C980        H985   1.083       .  S
C981        C982   1.420       .  A
C982        C983   1.509       .  S
C983        H987   1.111       .  S
C983        H988   1.110       .  S
C983        H989   1.110       .  S
C986        H990   1.111       .  S
C986        H991   1.110       .  S
C986        H992   1.111       .  S
C993        C994   1.403       .  A
C993        C998   1.406       .  A
C993       H1000   1.084       .  S
C994        C995   1.419       .  A
C995        C996   1.405       .  A
C995       C1002   1.509       .  S
C996        C997   1.406       .  A
C996       H1001   1.083       .  S
C997        C998   1.423       .  A
C998        C999   1.509       .  S
C999       H1003   1.111       .  S
C999       H1004   1.110       .  S
C999       H1005   1.110       .  S
C1002      H1006   1.110       .  S
C1002      H1007   1.109       .  S
C1002      H1008   1.111       .  S
C1009      C1010   1.404       .  A
C1009      C1014   1.401       .  A
C1009      H1016   1.085       .  S
C1010      C1011   1.411       .  A
C1011      C1012   1.395       .  A
C1011      C1018   1.508       .  S
C1012      C1013   1.404       .  A
C1012      H1017   1.085       .  S
C1013      C1014   1.413       .  A
C1014      C1015   1.507       .  S
C1015      H1019   1.111       .  S
C1015      H1020   1.109       .  S
C1015      H1021   1.111       .  S
C1018      H1022   1.109       .  S
C1018      H1023   1.109       .  S
C1018      H1024   1.111       .  S
C1025      C1026   1.404       .  A
C1025      C1030   1.405       .  A
C1025      H1032   1.084       .  S
C1026      C1027   1.416       .  A
C1027      C1028   1.406       .  A
C1027      C1034   1.508       .  S
C1028      C1029   1.409       .  A
C1028      H1033   1.084       .  S
C1029      C1030   1.423       .  A
C1030      C1031   1.510       .  S
C1031      H1035   1.111       .  S
C1031      H1036   1.110       .  S
C1031      H1037   1.110       .  S
C1034      H1038   1.109       .  S
C1034      H1039   1.110       .  S
C1034      H1040   1.111       .  S
C1041      C1042   1.399       .  A
C1041      C1046   1.393       .  A
C1041      H1048   1.085       .  S
C1042      C1043   1.415       .  A
C1043      C1044   1.401       .  A
C1043      C1050   1.508       .  S
C1044      C1045   1.403       .  A
C1044      H1049   1.084       .  S
C1045      C1046   1.420       .  A
C1046      C1047   1.512       .  S
C1047      H1051   1.111       .  S
C1047      H1052   1.110       .  S
C1047      H1053   1.111       .  S
C1050      H1054   1.110       .  S
C1050      H1055   1.110       .  S
C1050      H1056   1.111       .  S
C1057      C1058   1.406       .  A
C1057      C1062   1.396       .  A
C1057      H1064   1.084       .  S
C1058      C1059   1.411       .  A
C1059      C1060   1.395       .  A
C1059      C1066   1.509       .  S
C1060      C1061   1.405       .  A
C1060      H1065   1.084       .  S
C1061      C1062   1.411       .  A
C1062      C1063   1.508       .  S
C1063      H1067   1.111       .  S
C1063      H1068   1.109       .  S
C1063      H1069   1.109       .  S
C1066      H1070   1.109       .  S
C1066      H1071   1.110       .  S
C1066      H1072   1.111       .  S
C1073      C1074   1.401       .  A
C1073      C1078   1.405       .  A
C1073      H1080   1.084       .  S
C1074      C1075   1.417       .  A
C1075      C1076   1.406       .  A
C1075      C1082   1.508       .  S
C1076      C1077   1.401       .  A
C1076      H1081   1.084       .  S
C1077      C1078   1.418       .  A
C1078      C1079   1.509       .  S
C1079      H1083   1.111       .  S
C1079      H1084   1.111       .  S
C1079      H1085   1.109       .  S
C1082      H1086   1.110       .  S
C1082      H1087   1.109       .  S
C1082      H1088   1.111       .  S
C1089      C1090   1.405       .  A
C1089      C1094   1.405       .  A
C1089      H1096   1.084       .  S
C1090      C1091   1.417       .  A
C1091      C1092   1.406       .  A
C1091      C1098   1.509       .  S
C1092      C1093   1.409       .  A
C1092      H1097   1.084       .  S
C1093      C1094   1.423       .  A
C1094      C1095   1.510       .  S
C1095      H1099   1.111       .  S
C1095      H1100   1.110       .  S
C1095      H1101   1.110       .  S
C1098      H1102   1.109       .  S
C1098      H1103   1.110       .  S
C1098      H1104   1.111       .  S
C1105      C1106   1.405       .  A
C1105      C1110   1.399       .  A
C1105      H1112   1.084       .  S
C1106      C1107   1.419       .  A
C1107      C1108   1.398       .  A
C1107      C1114   1.510       .  S
C1108      C1109   1.405       .  A
C1108      H1113   1.084       .  S
C1109      C1110   1.419       .  A
C1110      C1111   1.510       .  S
C1111      H1115   1.111       .  S
C1111      H1116   1.110       .  S
C1111      H1117   1.109       .  S
C1114      H1118   1.108       .  S
C1114      H1119   1.110       .  S
C1114      H1120   1.111       .  S
C1121      C1122   1.401       .  A
C1121      C1126   1.405       .  A
C1121      H1128   1.084       .  S
C1122      C1123   1.418       .  A
C1123      C1124   1.405       .  A
C1123      C1130   1.510       .  S
C1124      C1125   1.407       .  A
C1124      H1129   1.084       .  S
C1125      C1126   1.425       .  A
C1126      C1127   1.510       .  S
C1127      H1131   1.111       .  S
C1127      H1132   1.109       .  S
C1127      H1133   1.110       .  S
C1130      H1134   1.109       .  S
C1130      H1135   1.111       .  S
C1130      H1136   1.111       .  S
C1137      C1138   1.406       .  A
C1137      C1142   1.408       .  A
C1137      H1144   1.084       .  S
C1138      C1139   1.422       .  A
C1139      C1140   1.407       .  A
C1139      C1146   1.509       .  S
C1140      C1141   1.405       .  A
C1140      H1145   1.084       .  S
C1141      C1142   1.421       .  A
C1142      C1143   1.509       .  S
C1143      H1147   1.111       .  S
C1143      H1148   1.110       .  S
C1143      H1149   1.109       .  S
C1146      H1150   1.110       .  S
C1146      H1151   1.109       .  S
C1146      H1152   1.111       .  S
C1153      C1154   1.406       .  A
C1153      C1158   1.399   1_554  A
C1153      H1160   1.084   1_554  S
C1154      C1155   1.412       .  A
C1155      C1156   1.398       .  A
C1155      C1162   1.508       .  S
C1156      C1157   1.407   1_554  A
C1156      H1161   1.084       .  S
C1157      C1158   1.412       .  A
C1158      C1159   1.509       .  S
C1159      H1163   1.111       .  S
C1159      H1164   1.110       .  S
C1159      H1165   1.104       .  S
C1162      H1166   1.108       .  S
C1162      H1167   1.110       .  S
C1162      H1168   1.111       .  S
C1169      C1170   1.402       .  A
C1169      C1174   1.407       .  A
C1169      H1176   1.084       .  S
C1170      C1171   1.406       .  A
C1171      C1172   1.402       .  A
C1171      C1178   1.507       .  S
C1172      C1173   1.410       .  A
C1172      H1177   1.084       .  S
C1173      C1174   1.418       .  A
C1174      C1175   1.507       .  S
C1175      H1179   1.111       .  S
C1175      H1180   1.110       .  S
C1175      H1181   1.110       .  S
C1178      H1182   1.110       .  S
C1178      H1183   1.111       .  S
C1178      H1184   1.111       .  S
C1185      C1186   1.407       .  A
C1185      C1190   1.412   1_554  A
C1185      H1192   1.084       .  S
C1186      C1187   1.412   1_554  A
C1187      C1188   1.403       .  A
C1187      C1194   1.510       .  S
C1188      C1189   1.410       .  A
C1188      H1193   1.081       .  S
C1189      C1190   1.419       .  A
C1190      C1191   1.507       .  S
C1191      H1195   1.111   1_556  S
C1191      H1196   1.110       .  S
C1191      H1197   1.109       .  S
C1194      H1198   1.109       .  S
C1194      H1199   1.111   1_556  S
C1194      H1200   1.111       .  S
C1201      C1202   1.405       .  A
C1201      C1206   1.405       .  A
C1201      H1208   1.084       .  S
C1202      C1203   1.421       .  A
C1203      C1204   1.406       .  A
C1203      C1210   1.509       .  S
C1204      C1205   1.405       .  A
C1204      H1209   1.084       .  S
C1205      C1206   1.419       .  A
C1206      C1207   1.509       .  S
C1207      H1211   1.111       .  S
C1207      H1212   1.110       .  S
C1207      H1213   1.109       .  S
C1210      H1214   1.110       .  S
C1210      H1215   1.109       .  S
C1210      H1216   1.111       .  S
C1217      C1218   1.411       .  A
C1217      C1222   1.406       .  A
C1217      H1224   1.084       .  S
C1218      C1219   1.420       .  A
C1219      C1220   1.408   1_554  A
C1219      C1226   1.508       .  S
C1220      C1221   1.404       .  A
C1220      H1225   1.084       .  S
C1221      C1222   1.413   1_556  A
C1222      C1223   1.509       .  S
C1223      H1227   1.111       .  S
C1223      H1228   1.111   1_554  S
C1223      H1229   1.109       .  S
C1226      H1230   1.109       .  S
C1226      H1231   1.111       .  S
C1226      H1232   1.111       .  S
C1233      C1234   1.406       .  A
C1233      C1238   1.406       .  A
C1233      H1240   1.084       .  S
C1234      C1235   1.418       .  A
C1235      C1236   1.409       .  A
C1235      C1242   1.508       .  S
C1236      C1237   1.409       .  A
C1236      H1241   1.084       .  S
C1237      C1238   1.417       .  A
C1238      C1239   1.501       .  S
C1239      H1243   1.111       .  S
C1239      H1244   1.110       .  S
C1239      H1245   1.101       .  S
C1242      H1246   1.110       .  S
C1242      H1247   1.108       .  S
C1242      H1248   1.111       .  S
C1249      C1250   1.406       .  A
C1249      C1254   1.405       .  A
C1249      H1256   1.084       .  S
C1250      C1251   1.414       .  A
C1251      C1252   1.405       .  A
C1251      C1258   1.507       .  S
C1252      C1253   1.404       .  A
C1252      H1257   1.084       .  S
C1253      C1254   1.411       .  A
C1254      C1255   1.507       .  S
C1255      H1259   1.111       .  S
C1255      H1260   1.111       .  S
C1255      H1261   1.110       .  S
C1258      H1262   1.110       .  S
C1258      H1263   1.110       .  S
C1258      H1264   1.111       .  S
C1265      C1266   1.404       .  A
C1265      C1270   1.406       .  A
C1265      H1272   1.083       .  S
C1266      C1267   1.413       .  A
C1267      C1268   1.404       .  A
C1267      C1274   1.509       .  S
C1268      C1269   1.411       .  A
C1268      H1273   1.083       .  S
C1269      C1270   1.420       .  A
C1270      C1271   1.509       .  S
C1271      H1275   1.111       .  S
C1271      H1276   1.110       .  S
C1271      H1277   1.111       .  S
C1274      H1278   1.111       .  S
C1274      H1279   1.109       .  S
C1274      H1280   1.111       .  S
C1281      C1282   1.404       .  A
C1281      C1286   1.405       .  A
C1281      H1288   1.084       .  S
C1282      C1283   1.419       .  A
C1283      C1284   1.404       .  A
C1283      C1290   1.509       .  S
C1284      C1285   1.405       .  A
C1284      H1289   1.084       .  S
C1285      C1286   1.420       .  A
C1286      C1287   1.509       .  S
C1287      H1291   1.111       .  S
C1287      H1292   1.109       .  S
C1287      H1293   1.110       .  S
C1290      H1294   1.109       .  S
C1290      H1295   1.110       .  S
C1290      H1296   1.111       .  S
C1297      C1298   1.402       .  A
C1297      C1302   1.400       .  A
C1297      H1304   1.084       .  S
C1298      C1299   1.419       .  A
C1299      C1300   1.394       .  A
C1299      C1306   1.511       .  S
C1300      C1301   1.399       .  A
C1300      H1305   1.085       .  S
C1301      C1302   1.416       .  A
C1302      C1303   1.509       .  S
C1303      H1307   1.111       .  S
C1303      H1308   1.110       .  S
C1303      H1309   1.109       .  S
C1306      H1310   1.110       .  S
C1306      H1311   1.110       .  S
C1306      H1312   1.111       .  S
C1313      C1314   1.408       .  A
C1313      C1318   1.410       .  A
C1313      H1320   1.083       .  S
C1314      C1315   1.425       .  A
C1315      C1316   1.407       .  A
C1315      C1322   1.510       .  S
C1316      C1317   1.404       .  A
C1316      H1321   1.084       .  S
C1317      C1318   1.420       .  A
C1318      C1319   1.509       .  S
C1319      H1323   1.111       .  S
C1319      H1324   1.111       .  S
C1319      H1325   1.110       .  S
C1322      H1326   1.110       .  S
C1322      H1327   1.110       .  S
C1322      H1328   1.111       .  S
C1329      C1330   1.407       .  A
C1329      C1334   1.397       .  A
C1329      H1336   1.084       .  S
C1330      C1331   1.413       .  A
C1331      C1332   1.401       .  A
C1331      C1338   1.507       .  S
C1332      C1333   1.404       .  A
C1332      H1337   1.084       .  S
C1333      C1334   1.411       .  A
C1334      C1335   1.510       .  S
C1335      H1339   1.111       .  S
C1335      H1340   1.109       .  S
C1335      H1341   1.111       .  S
C1338      H1342   1.110       .  S
C1338      H1343   1.110       .  S
C1338      H1344   1.111       .  S
C1345      C1346   1.407       .  A
C1345      C1350   1.399       .  A
C1345      H1352   1.084       .  S
C1346      C1347   1.410       .  A
C1347      C1348   1.399       .  A
C1347      C1354   1.509       .  S
C1348      C1349   1.407       .  A
C1348      H1353   1.085       .  S
C1349      C1350   1.410       .  A
C1350      C1351   1.508       .  S
C1351      H1355   1.111       .  S
C1351      H1356   1.111       .  S
C1351      H1357   1.108       .  S
C1354      H1358   1.109       .  S
C1354      H1359   1.111       .  S
C1354      H1360   1.111       .  S
C1361      C1362   1.405       .  A
C1361      C1366   1.403       .  A
C1361      H1368   1.084       .  S
C1362      C1363   1.411       .  A
C1363      C1364   1.404       .  A
C1363      C1370   1.507       .  S
C1364      C1365   1.406       .  A
C1364      H1369   1.084       .  S
C1365      C1366   1.411       .  A
C1366      C1367   1.507       .  S
C1367      H1371   1.111       .  S
C1367      H1372   1.110       .  S
C1367      H1373   1.110       .  S
C1370      H1374   1.110       .  S
C1370      H1375   1.110       .  S
C1370      H1376   1.111       .  S
C1377      C1378   1.412       .  A
C1377      C1382   1.406       .  A
C1377      H1384   1.083       .  S
C1378      C1379   1.419       .  A
C1379      C1380   1.406       .  A
C1379      C1386   1.508       .  S
C1380      C1381   1.405       .  A
C1380      H1385   1.084       .  S
C1381      C1382   1.414       .  A
C1382      C1383   1.509       .  S
C1383      H1387   1.111       .  S
C1383      H1388   1.110       .  S
C1383      H1389   1.109       .  S
C1386      H1390   1.109       .  S
C1386      H1391   1.111       .  S
C1386      H1392   1.111       .  S
C1393      C1394   1.403       .  A
C1393      C1398   1.396       .  A
C1393      H1400   1.084       .  S
C1394      C1395   1.420       .  A
C1395      C1396   1.398       .  A
C1395      C1402   1.511       .  S
C1396      C1397   1.405       .  A
C1396      H1401   1.084       .  S
C1397      C1398   1.419       .  A
C1398      C1399   1.510       .  S
C1399      H1403   1.111       .  S
C1399      H1404   1.110       .  S
C1399      H1405   1.108       .  S
C1402      H1406   1.108       .  S
C1402      H1407   1.110       .  S
C1402      H1408   1.111       .  S
C1409      C1410   1.405       .  A
C1409      C1414   1.408       .  A
C1409      H1416   1.083       .  S
C1410      C1411   1.414       .  A
C1411      C1412   1.406       .  A
C1411      C1418   1.509       .  S
C1412      C1413   1.411       .  A
C1412      H1417   1.083       .  S
C1413      C1414   1.421       .  A
C1414      C1415   1.508       .  S
C1415      H1419   1.111       .  S
C1415      H1420   1.109       .  S
C1415      H1421   1.111       .  S
C1418      H1422   1.111       .  S
C1418      H1423   1.109       .  S
C1418      H1424   1.111       .  S
C1425      C1426   1.405       .  A
C1425      C1430   1.406       .  A
C1425      H1432   1.084       .  S
C1426      C1427   1.424       .  A
C1427      C1428   1.404       .  A
C1427      C1434   1.510       .  S
C1428      C1429   1.402       .  A
C1428      H1433   1.084       .  S
C1429      C1430   1.419       .  A
C1430      C1431   1.509       .  S
C1431      H1435   1.111       .  S
C1431      H1436   1.109       .  S
C1431      H1437   1.110       .  S
C1434      H1438   1.110       .  S
C1434      H1439   1.110       .  S
C1434      H1440   1.111       .  S
C1441      C1442   1.403       .  A
C1441      C1446   1.406       .  A
C1441      H1448   1.084       .  S
C1442      C1443   1.421       .  A
C1443      C1444   1.407       .  A
C1443      C1450   1.508       .  S
C1444      C1445   1.400       .  A
C1444      H1449   1.084       .  S
C1445      C1446   1.416       .  A
C1446      C1447   1.508       .  S
C1447      H1451   1.111       .  S
C1447      H1452   1.109       .  S
C1447      H1453   1.110       .  S
C1450      H1454   1.107       .  S
C1450      H1455   1.109       .  S
C1450      H1456   1.111       .  S
C1457      C1458   1.405       .  A
C1457      C1462   1.408       .  A
C1457      H1464   1.084       .  S
C1458      C1459   1.417       .  A
C1459      C1460   1.404       .  A
C1459      C1466   1.510       .  S
C1460      C1461   1.409       .  A
C1460      H1465   1.083       .  S
C1461      C1462   1.422       .  A
C1462      C1463   1.508       .  S
C1463      H1467   1.111       .  S
C1463      H1468   1.110       .  S
C1463      H1469   1.110       .  S
C1466      H1470   1.111       .  S
C1466      H1471   1.109       .  S
C1466      H1472   1.111       .  S
C1473      C1474   1.406       .  A
C1473      C1478   1.405       .  A
C1473      H1480   1.084       .  S
C1474      C1475   1.420       .  A
C1475      C1476   1.405       .  A
C1475      C1482   1.509       .  S
C1476      C1477   1.405       .  A
C1476      H1481   1.084       .  S
C1477      C1478   1.419       .  A
C1478      C1479   1.509       .  S
C1479      H1483   1.111       .  S
C1479      H1484   1.109       .  S
C1479      H1485   1.110       .  S
C1482      H1486   1.110       .  S
C1482      H1487   1.110       .  S
C1482      H1488   1.111       .  S
C1489      C1490   1.403       .  A
C1489      C1494   1.394       .  A
C1489      H1496   1.085       .  S
C1490      C1491   1.410       .  A
C1491      C1492   1.400       .  A
C1491      C1498   1.508       .  S
C1492      C1493   1.404       .  A
C1492      H1497   1.085       .  S
C1493      C1494   1.409       .  A
C1494      C1495   1.510       .  S
C1495      H1499   1.111       .  S
C1495      H1500   1.109       .  S
C1495      H1501   1.110       .  S
C1498      H1502   1.111       .  S
C1498      H1503   1.109       .  S
C1498      H1504   1.111       .  S
C1505      C1506   1.406       .  A
C1505      C1510   1.396       .  A
C1505      H1512   1.085       .  S
C1506      C1507   1.411   1_655  A
C1507      C1508   1.398       .  A
C1507      C1514   1.509       .  S
C1508      C1509   1.407   1_455  A
C1508      H1513   1.085       .  S
C1509      C1510   1.412       .  A
C1510      C1511   1.508       .  S
C1511      H1515   1.107       .  S
C1511      H1516   1.110       .  S
C1511      H1517   1.107       .  S
C1514      H1518   1.110       .  S
C1514      H1519   1.107       .  S
C1514      H1520   1.111       .  S
C1521      C1522   1.406       .  A
C1521      C1526   1.408       .  A
C1521      H1528   1.084       .  S
C1522      C1523   1.420       .  A
C1523      C1524   1.407       .  A
C1523      C1530   1.509       .  S
C1524      C1525   1.408       .  A
C1524      H1529   1.084       .  S
C1525      C1526   1.423       .  A
C1526      C1527   1.509       .  S
C1527      H1531   1.111       .  S
C1527      H1532   1.111       .  S
C1527      H1533   1.110       .  S
C1530      H1534   1.111       .  S
C1530      H1535   1.109       .  S
C1530      H1536   1.111       .  S
C1537      C1538   1.404       .  A
C1537      C1542   1.402       .  A
C1537      H1544   1.084       .  S
C1538      C1539   1.410       .  A
C1539      C1540   1.396       .  A
C1539      C1546   1.509       .  S
C1540      C1541   1.405       .  A
C1540      H1545   1.084       .  S
C1541      C1542   1.413       .  A
C1542      C1543   1.507       .  S
C1543      H1547   1.111       .  S
C1543      H1548   1.110       .  S
C1543      H1549   1.109   1_554  S
C1546      H1550   1.109       .  S
C1546      H1551   1.111       .  S
C1546      H1552   1.111       .  S
C1553      C1554   1.406   1_556  A
C1553      C1558   1.397       .  A
C1553      H1560   1.084       .  S
C1554      C1555   1.409       .  A
C1555      C1556   1.396       .  A
C1555      C1562   1.509       .  S
C1556      C1557   1.404   1_554  A
C1556      H1561   1.085       .  S
C1557      C1558   1.409       .  A
C1558      C1559   1.509       .  S
C1559      H1563   1.111       .  S
C1559      H1564   1.110       .  S
C1559      H1565   1.107       .  S
C1562      H1566   1.109       .  S
C1562      H1567   1.110       .  S
C1562      H1568   1.111       .  S
C1569      C1570   1.403       .  A
C1569      C1574   1.405       .  A
C1569      H1576   1.084       .  S
C1570      C1571   1.419       .  A
C1571      C1572   1.406       .  A
C1571      C1578   1.509       .  S
C1572      C1573   1.401       .  A
C1572      H1577   1.084       .  S
C1573      C1574   1.415       .  A
C1574      C1575   1.508       .  S
C1575      H1579   1.111       .  S
C1575      H1580   1.109       .  S
C1575      H1581   1.111       .  S
C1578      H1582   1.109       .  S
C1578      H1583   1.111       .  S
C1578      H1584   1.111       .  S
C1585      C1586   1.406       .  A
C1585      C1590   1.406   1_556  A
C1585      H1592   1.084       .  S
C1586      C1587   1.416   1_556  A
C1587      C1588   1.406       .  A
C1587      C1594   1.509       .  S
C1588      C1589   1.411       .  A
C1588      H1593   1.083       .  S
C1589      C1590   1.421       .  A
C1590      C1591   1.509   1_554  S
C1591      H1595   1.111       .  S
C1591      H1596   1.110       .  S
C1591      H1597   1.110   1_556  S
C1594      H1598   1.110       .  S
C1594      H1599   1.110       .  S
C1594      H1600   1.111       .  S
C1601      C1602   1.402       .  A
C1601      C1606   1.396       .  A
C1601      H1608   1.085       .  S
C1602      C1603   1.408       .  A
C1603      C1604   1.393       .  A
C1603      C1610   1.510       .  S
C1604      C1605   1.404       .  A
C1604      H1609   1.084       .  S
C1605      C1606   1.410       .  A
C1606      C1607   1.508       .  S
C1607      H1611   1.111       .  S
C1607      H1612   1.111       .  S
C1607      H1613   1.109       .  S
C1610      H1614   1.109       .  S
C1610      H1615   1.111       .  S
C1610      H1616   1.111       .  S
C1617      C1618   1.409       .  A
C1617      C1622   1.406       .  A
C1617      H1624   1.084       .  S
C1618      C1619   1.421       .  A
C1619      C1620   1.405       .  A
C1619      C1626   1.509       .  S
C1620      C1621   1.405       .  A
C1620      H1625   1.084       .  S
C1621      C1622   1.417       .  A
C1622      C1623   1.508   1_565  S
C1623      H1627   1.111       .  S
C1623      H1628   1.111       .  S
C1623      H1629   1.109       .  S
C1626      H1630   1.110       .  S
C1626      H1631   1.110       .  S
C1626      H1632   1.111       .  S
C1633      C1634   1.406       .  A
C1633      C1638   1.408       .  A
C1633      H1640   1.084       .  S
C1634      C1635   1.415       .  A
C1635      C1636   1.403       .  A
C1635      C1642   1.510       .  S
C1636      C1637   1.409       .  A
C1636      H1641   1.083       .  S
C1637      C1638   1.421       .  A
C1638      C1639   1.508       .  S
C1639      H1643   1.111       .  S
C1639      H1644   1.111       .  S
C1639      H1645   1.110       .  S
C1642      H1646   1.110       .  S
C1642      H1647   1.111       .  S
C1642      H1648   1.111       .  S
C1649      C1650   1.404       .  A
C1649      C1654   1.405       .  A
C1649      H1656   1.084       .  S
C1650      C1651   1.420       .  A
C1651      C1652   1.405       .  A
C1651      C1658   1.509       .  S
C1652      C1653   1.406       .  A
C1652      H1657   1.084       .  S
C1653      C1654   1.421       .  A
C1654      C1655   1.509       .  S
C1655      H1659   1.111       .  S
C1655      H1660   1.110       .  S
C1655      H1661   1.110       .  S
C1658      H1662   1.110       .  S
C1658      H1663   1.109   1_565  S
C1658      H1664   1.111   1_565  S
C1665      C1666   1.402       .  A
C1665      C1670   1.401       .  A
C1665      H1672   1.084       .  S
C1666      C1667   1.419       .  A
C1667      C1668   1.395       .  A
C1667      C1674   1.511       .  S
C1668      C1669   1.399       .  A
C1668      H1673   1.085       .  S
C1669      C1670   1.416       .  A
C1670      C1671   1.507       .  S
C1671      H1675   1.111       .  S
C1671      H1676   1.110       .  S
C1671      H1677   1.108       .  S
C1674      H1678   1.110       .  S
C1674      H1679   1.110       .  S
C1674      H1680   1.111       .  S
C1681      C1682   1.405       .  A
C1681      C1686   1.405       .  A
C1681      H1688   1.084       .  S
C1682      C1683   1.410       .  A
C1683      C1684   1.403       .  A
C1683      C1690   1.507       .  S
C1684      C1685   1.406       .  A
C1684      H1689   1.084       .  S
C1685      C1686   1.413       .  A
C1686      C1687   1.507       .  S
C1687      H1691   1.111       .  S
C1687      H1692   1.110       .  S
C1687      H1693   1.111       .  S
C1690      H1694   1.110       .  S
C1690      H1695   1.111       .  S
C1690      H1696   1.111       .  S
C1697      C1698   1.406       .  A
C1697      C1702   1.406       .  A
C1697      H1704   1.084       .  S
C1698      C1699   1.418       .  A
C1699      C1700   1.405       .  A
C1699      C1706   1.509       .  S
C1700      C1701   1.408       .  A
C1700      H1705   1.084   1_565  S
C1701      C1702   1.422       .  A
C1702      C1703   1.509       .  S
C1703      H1707   1.111       .  S
C1703      H1708   1.110       .  S
C1703      H1709   1.110       .  S
C1706      H1710   1.110       .  S
C1706      H1711   1.109       .  S
C1706      H1712   1.111   1_565  S
C1713      C1714   1.408       .  A
C1713      C1718   1.408       .  A
C1713      H1720   1.084       .  S
C1714      C1715   1.424       .  A
C1715      C1716   1.406       .  A
C1715      C1722   1.510       .  S
C1716      C1717   1.405       .  A
C1716      H1721   1.084       .  S
C1717      C1718   1.420       .  A
C1718      C1719   1.509       .  S
C1719      H1723   1.111       .  S
C1719      H1724   1.110       .  S
C1719      H1725   1.111       .  S
C1722      H1726   1.110       .  S
C1722      H1727   1.110       .  S
C1722      H1728   1.111       .  S
C1729      C1730   1.405       .  A
C1729      C1734   1.404       .  A
C1729      H1736   1.084       .  S
C1730      C1731   1.420       .  A
C1731      C1732   1.402       .  A
C1731      C1738   1.509       .  S
C1732      C1733   1.403       .  A
C1732      H1737   1.084       .  S
C1733      C1734   1.418       .  A
C1734      C1735   1.509       .  S
C1735      H1739   1.111       .  S
C1735      H1740   1.110       .  S
C1735      H1741   1.109       .  S
C1738      H1742   1.110       .  S
C1738      H1743   1.109       .  S
C1738      H1744   1.111       .  S
C1745      C1746   1.408       .  A
C1745      C1750   1.396       .  A
C1745      H1752   1.084       .  S
C1746      C1747   1.417       .  A
C1747      C1748   1.406       .  A
C1747      C1754   1.507       .  S
C1748      C1749   1.405       .  A
C1748      H1753   1.084       .  S
C1749      C1750   1.411       .  A
C1750      C1751   1.511       .  S
C1751      H1755   1.111       .  S
C1751      H1756   1.111       .  S
C1751      H1757   1.109       .  S
C1754      H1758   1.110   1_556  S
C1754      H1759   1.110       .  S
C1754      H1760   1.111   1_556  S
C1761      C1762   1.409   1_554  A
C1761      C1766   1.408       .  A
C1761      H1768   1.084       .  S
C1762      C1763   1.415       .  A
C1763      C1764   1.406       .  A
C1763      C1770   1.507       .  S
C1764      C1765   1.406   1_556  A
C1764      H1769   1.084       .  S
C1765      C1766   1.414       .  A
C1766      C1767   1.507       .  S
C1767      H1771   1.111       .  S
C1767      H1772   1.111       .  S
C1767      H1773   1.109       .  S
C1770      H1774   1.111       .  S
C1770      H1775   1.110       .  S
C1770      H1776   1.111       .  S
C1777      C1778   1.407       .  A
C1777      C1782   1.401       .  A
C1777      H1784   1.084       .  S
C1778      C1779   1.418       .  A
C1779      C1780   1.409       .  A
C1779      C1786   1.508       .  S
C1780      C1781   1.408       .  A
C1780      H1785   1.084       .  S
C1781      C1782   1.418       .  A
C1782      C1783   1.511       .  S
C1783      H1787   1.111   1_545  S
C1783      H1788   1.110       .  S
C1783      H1789   1.108       .  S
C1786      H1790   1.110       .  S
C1786      H1791   1.107       .  S
C1786      H1792   1.111       .  S
C1793      C1794   1.407   1_556  A
C1793      C1798   1.408       .  A
C1793      H1800   1.084   1_545  S
C1794      C1795   1.419       .  A
C1795      C1796   1.404   1_554  A
C1795      C1802   1.509       .  S
C1796      C1797   1.402       .  A
C1796      H1801   1.085       .  S
C1797      C1798   1.415       .  A
C1798      C1799   1.507       .  S
C1799      H1803   1.111   1_545  S
C1799      H1804   1.109       .  S
C1799      H1805   1.110       .  S
C1802      H1806   1.109       .  S
C1802      H1807   1.110       .  S
C1802      H1808   1.111       .  S
C1809      C1810   1.401       .  A
C1809      C1814   1.394       .  A
C1809      H1816   1.085       .  S
C1810      C1811   1.415       .  A
C1811      C1812   1.402       .  A
C1811      C1818   1.508       .  S
C1812      C1813   1.405       .  A
C1812      H1817   1.084       .  S
C1813      C1814   1.420       .  A
C1814      C1815   1.511       .  S
C1815      H1819   1.111       .  S
C1815      H1820   1.110       .  S
C1815      H1821   1.110       .  S
C1818      H1822   1.109       .  S
C1818      H1823   1.110       .  S
C1818      H1824   1.111       .  S
C1825      C1826   1.406       .  A
C1825      C1830   1.398   1_545  A
C1825      H1832   1.084       .  S
C1826      C1827   1.411       .  A
C1827      C1828   1.399   1_545  A
C1827      C1834   1.508       .  S
C1828      C1829   1.407       .  A
C1828      H1833   1.084       .  S
C1829      C1830   1.410       .  A
C1830      C1831   1.508       .  S
C1831      H1835   1.111       .  S
C1831      H1836   1.111       .  S
C1831      H1837   1.109       .  S
C1834      H1838   1.109       .  S
C1834      H1839   1.110       .  S
C1834      H1840   1.111       .  S
C1841      C1842   1.410       .  A
C1841      C1846   1.401       .  A
C1841      H1848   1.083       .  S
C1842      C1843   1.422       .  A
C1843      C1844   1.413       .  A
C1843      C1850   1.506       .  S
C1844      C1845   1.406       .  A
C1844      H1849   1.084       .  S
C1845      C1846   1.414       .  A
C1846      C1847   1.511       .  S
C1847      H1851   1.111       .  S
C1847      H1852   1.109       .  S
C1847      H1853   1.111       .  S
C1850      H1854   1.110       .  S
C1850      H1855   1.109       .  S
C1850      H1856   1.111       .  S
C1857      C1858   1.410       .  A
C1857      C1862   1.406       .  A
C1857      H1864   1.083       .  S
C1858      C1859   1.422       .  A
C1859      C1860   1.409       .  A
C1859      C1866   1.508       .  S
C1860      C1861   1.407       .  A
C1860      H1865   1.084       .  S
C1861      C1862   1.418       .  A
C1862      C1863   1.508       .  S
C1863      H1867   1.111       .  S
C1863      H1868   1.110       .  S
C1863      H1869   1.109       .  S
C1866      H1870   1.110       .  S
C1866      H1871   1.110       .  S
C1866      H1872   1.111       .  S
C1873      C1874   1.406       .  A
C1873      C1878   1.406       .  A
C1873      H1880   1.084       .  S
C1874      C1875   1.418       .  A
C1875      C1876   1.404       .  A
C1875      C1882   1.508       .  S
C1876      C1877   1.407       .  A
C1876      H1881   1.084       .  S
C1877      C1878   1.418       .  A
C1878      C1879   1.508       .  S
C1879      H1883   1.108       .  S
C1879      H1884   1.111       .  S
C1879      H1885   1.110       .  S
C1882      H1886   1.110       .  S
C1882      H1887   1.106       .  S
C1882      H1888   1.111       .  S
C1889      C1890   1.406       .  A
C1889      C1894   1.408       .  A
C1889      H1896   1.084       .  S
C1890      C1891   1.412       .  A
C1891      C1892   1.403       .  A
C1891      C1898   1.509   1_545  S
C1892      C1893   1.412       .  A
C1892      H1897   1.084       .  S
C1893      C1894   1.419       .  A
C1894      C1895   1.508       .  S
C1895      H1899   1.111       .  S
C1895      H1900   1.110       .  S
C1895      H1901   1.109       .  S
C1898      H1902   1.111       .  S
C1898      H1903   1.109       .  S
C1898      H1904   1.111       .  S
C1905      C1906   1.404       .  A
C1905      C1910   1.404       .  A
C1905      H1912   1.084       .  S
C1906      C1907   1.412       .  A
C1907      C1908   1.397       .  A
C1907      C1914   1.510       .  S
C1908      C1909   1.405       .  A
C1908      H1913   1.084       .  S
C1909      C1910   1.415       .  A
C1910      C1911   1.508       .  S
C1911      H1915   1.111       .  S
C1911      H1916   1.111       .  S
C1911      H1917   1.109       .  S
C1914      H1918   1.109       .  S
C1914      H1919   1.111       .  S
C1914      H1920   1.111       .  S
C1921      C1922   1.410       .  A
C1921      C1926   1.404       .  A
C1921      H1928   1.083       .  S
C1922      C1923   1.421       .  A
C1923      C1924   1.409       .  A
C1923      C1930   1.508       .  S
C1924      C1925   1.405       .  A
C1924      H1929   1.084       .  S
C1925      C1926   1.415       .  A
C1926      C1927   1.509   1_565  S
C1927      H1931   1.111       .  S
C1927      H1932   1.110       .  S
C1927      H1933   1.109       .  S
C1930      H1934   1.110       .  S
C1930      H1935   1.110       .  S
C1930      H1936   1.111       .  S
C1937      C1938   1.404       .  A
C1937      C1942   1.406       .  A
C1937      H1944   1.084       .  S
C1938      C1939   1.414       .  A
C1939      C1940   1.403       .  A
C1939      C1946   1.510       .  S
C1940      C1941   1.411       .  A
C1940      H1945   1.083       .  S
C1941      C1942   1.420       .  A
C1942      C1943   1.508       .  S
C1943      H1947   1.111       .  S
C1943      H1948   1.111       .  S
C1943      H1949   1.109       .  S
C1946      H1950   1.110       .  S
C1946      H1951   1.110       .  S
C1946      H1952   1.111       .  S
C1953      C1954   1.407       .  A
C1953      C1958   1.405       .  A
C1953      H1960   1.084       .  S
C1954      C1955   1.418       .  A
C1955      C1956   1.408       .  A
C1955      C1962   1.508       .  S
C1956      C1957   1.409       .  A
C1956      H1961   1.084       .  S
C1957      C1958   1.417       .  A
C1958      C1959   1.508       .  S
C1959      H1963   1.106       .  S
C1959      H1964   1.110       .  S
C1959      H1965   1.111       .  S
C1962      H1966   1.107       .  S
C1962      H1967   1.110       .  S
C1962      H1968   1.111       .  S
C1969      C1970   1.405       .  A
C1969      C1974   1.394       .  A
C1969      H1976   1.084       .  S
C1970      C1971   1.413       .  A
C1971      C1972   1.402       .  A
C1971      C1978   1.507       .  S
C1972      C1973   1.404       .  A
C1972      H1977   1.084       .  S
C1973      C1974   1.412       .  A
C1974      C1975   1.512       .  S
C1975      H1979   1.111       .  S
C1975      H1980   1.109       .  S
C1975      H1981   1.110       .  S
C1978      H1982   1.110       .  S
C1978      H1983   1.110   1_554  S
C1978      H1984   1.111   1_554  S
C1985      C1986   1.406       .  A
C1985      C1990   1.403   1_565  A
C1985      H1992   1.084       .  S
C1986      C1987   1.411       .  A
C1987      C1988   1.398   1_565  A
C1987      C1994   1.507       .  S
C1988      C1989   1.402       .  A
C1988      H1993   1.085       .  S
C1989      C1990   1.408       .  A
C1990      C1991   1.507   1_554  S
C1991      H1995   1.111       .  S
C1991      H1996   1.110   1_556  S
C1991      H1997   1.109       .  S
C1994      H1998   1.105       .  S
C1994      H1999   1.110       .  S
C1994      H2000   1.111       .  S
C2001      C2002   1.406       .  A
C2001      C2006   1.405       .  A
C2001      H2008   1.084       .  S
C2002      C2003   1.413       .  A
C2003      C2004   1.406       .  A
C2003      C2010   1.507       .  S
C2004      C2005   1.406       .  A
C2004      H2009   1.084       .  S
C2005      C2006   1.412       .  A
C2006      C2007   1.507       .  S
C2007      H2011   1.111       .  S
C2007      H2012   1.110       .  S
C2007      H2013   1.111       .  S
C2010      H2014   1.110       .  S
C2010      H2015   1.110       .  S
C2010      H2016   1.111       .  S
C2017      C2018   1.408       .  A
C2017      C2022   1.407   1_554  A
C2017      H2024   1.084       .  S
C2018      C2019   1.422       .  A
C2019      C2020   1.407       .  A
C2019      C2026   1.509       .  S
C2020      C2021   1.407   1_554  A
C2020      H2025   1.084   1_565  S
C2021      C2022   1.420       .  A
C2022      C2023   1.509       .  S
C2023      H2027   1.111       .  S
C2023      H2028   1.111       .  S
C2023      H2029   1.110       .  S
C2026      H2030   1.111       .  S
C2026      H2031   1.109       .  S
C2026      H2032   1.111   1_565  S
C2033      C2034   1.407   1_556  A
C2033      C2038   1.411       .  A
C2033      H2040   1.084       .  S
C2034      C2035   1.426       .  A
C2035      C2036   1.409       .  A
C2035      C2042   1.510       .  S
C2036      C2037   1.405   1_554  A
C2036      H2041   1.084       .  S
C2037      C2038   1.423       .  A
C2038      C2039   1.508       .  S
C2039      H2043   1.111       .  S
C2039      H2044   1.109       .  S
C2039      H2045   1.111       .  S
C2042      H2046   1.110       .  S
C2042      H2047   1.111       .  S
C2042      H2048   1.111       .  S
C2049      C2050   1.403       .  A
C2049      C2054   1.406       .  A
C2049      H2056   1.084       .  S
C2050      C2051   1.418       .  A
C2051      C2052   1.406       .  A
C2051      C2058   1.509       .  S
C2052      C2053   1.406       .  A
C2052      H2057   1.084       .  S
C2053      C2054   1.422       .  A
C2054      C2055   1.509       .  S
C2055      H2059   1.111       .  S
C2055      H2060   1.110       .  S
C2055      H2061   1.109       .  S
C2058      H2062   1.111       .  S
C2058      H2063   1.109       .  S
C2058      H2064   1.111       .  S
C2065      C2066   1.403       .  A
C2065      C2070   1.394       .  A
C2065      H2072   1.085       .  S
C2066      C2067   1.411       .  A
C2067      C2068   1.401       .  A
C2067      C2074   1.507       .  S
C2068      C2069   1.404       .  A
C2068      H2073   1.085       .  S
C2069      C2070   1.409       .  A
C2070      C2071   1.507       .  S
C2071      H2075   1.111       .  S
C2071      H2076   1.110       .  S
C2071      H2077   1.109       .  S
C2074      H2078   1.109       .  S
C2074      H2079   1.111       .  S
C2074      H2080   1.111       .  S
C2081      C2082   1.406       .  A
C2081      C2086   1.398   1_565  A
C2081      H2088   1.084       .  S
C2082      C2083   1.410       .  A
C2083      C2084   1.398   1_565  A
C2083      C2090   1.509       .  S
C2084      C2085   1.407       .  A
C2084      H2089   1.084       .  S
C2085      C2086   1.412       .  A
C2086      C2087   1.509       .  S
C2087      H2091   1.111       .  S
C2087      H2092   1.110       .  S
C2087      H2093   1.108       .  S
C2090      H2094   1.105       .  S
C2090      H2095   1.110       .  S
C2090      H2096   1.111       .  S
C2097      C2098   1.404       .  A
C2097      C2102   1.405       .  A
C2097      H2104   1.084       .  S
C2098      C2099   1.421       .  A
C2099      C2100   1.408       .  A
C2099      C2106   1.509       .  S
C2100      C2101   1.408       .  A
C2100      H2105   1.084       .  S
C2101      C2102   1.423       .  A
C2102      C2103   1.509       .  S
C2103      H2107   1.111       .  S
C2103      H2108   1.110       .  S
C2103      H2109   1.110       .  S
C2106      H2110   1.111       .  S
C2106      H2111   1.110       .  S
C2106      H2112   1.111       .  S
C2113      C2114   1.405       .  A
C2113      C2118   1.407       .  A
C2113      H2120   1.084       .  S
C2114      C2115   1.420       .  A
C2115      C2116   1.404       .  A
C2115      C2122   1.509       .  S
C2116      C2117   1.405       .  A
C2116      H2121   1.083       .  S
C2117      C2118   1.421       .  A
C2118      C2119   1.509       .  S
C2119      H2123   1.111       .  S
C2119      H2124   1.110       .  S
C2119      H2125   1.110       .  S
C2122      H2126   1.109       .  S
C2122      H2127   1.110       .  S
C2122      H2128   1.111       .  S
C2129      C2130   1.403       .  A
C2129      C2134   1.407       .  A
C2129      H2136   1.084   1_545  S
C2130      C2131   1.419       .  A
C2131      C2132   1.407       .  A
C2131      C2138   1.509       .  S
C2132      C2133   1.408       .  A
C2132      H2137   1.084       .  S
C2133      C2134   1.426       .  A
C2134      C2135   1.510       .  S
C2135      H2139   1.111   1_545  S
C2135      H2140   1.109       .  S
C2135      H2141   1.110       .  S
C2138      H2142   1.110       .  S
C2138      H2143   1.110   1_655  S
C2138      H2144   1.111       .  S
C2145      C2146   1.402       .  A
C2145      C2150   1.397       .  A
C2145      H2152   1.084       .  S
C2146      C2147   1.418       .  A
C2147      C2148   1.391       .  A
C2147      C2154   1.512       .  S
C2148      C2149   1.400       .  A
C2148      H2153   1.083       .  S
C2149      C2150   1.416       .  A
C2150      C2151   1.508       .  S
C2151      H2155   1.111       .  S
C2151      H2156   1.108       .  S
C2151      H2157   1.110       .  S
C2154      H2158   1.110       .  S
C2154      H2159   1.111       .  S
C2154      H2160   1.111       .  S
C2161      C2162   1.404       .  A
C2161      C2166   1.396   1_565  A
C2161      H2168   1.084       .  S
C2162      C2163   1.419   1_655  A
C2163      C2164   1.394   1_565  A
C2163      C2170   1.511       .  S
C2164      C2165   1.403   1_455  A
C2164      H2169   1.083       .  S
C2165      C2166   1.418       .  A
C2166      C2167   1.510       .  S
C2167      H2171   1.111       .  S
C2167      H2172   1.108       .  S
C2167      H2173   1.110       .  S
C2170      H2174   1.110       .  S
C2170      H2175   1.108       .  S
C2170      H2176   1.111       .  S
C2177      C2178   1.407       .  A
C2177      C2182   1.406       .  A
C2177      H2184   1.084       .  S
C2178      C2179   1.414       .  A
C2179      C2180   1.406       .  A
C2179      C2186   1.507       .  S
C2180      C2181   1.404       .  A
C2180      H2185   1.084       .  S
C2181      C2182   1.411       .  A
C2182      C2183   1.507       .  S
C2183      H2187   1.111       .  S
C2183      H2188   1.111       .  S
C2183      H2189   1.110       .  S
C2186      H2190   1.111       .  S
C2186      H2191   1.110       .  S
C2186      H2192   1.111       .  S
C2193      C2194   1.410       .  A
C2193      C2198   1.408       .  A
C2193      H2200   1.083       .  S
C2194      C2195   1.423       .  A
C2195      C2196   1.408       .  A
C2195      C2202   1.509       .  S
C2196      C2197   1.406       .  A
C2196      H2201   1.084       .  S
C2197      C2198   1.417       .  A
C2198      C2199   1.509       .  S
C2199      H2203   1.111       .  S
C2199      H2204   1.111       .  S
C2199      H2205   1.109       .  S
C2202      H2206   1.111       .  S
C2202      H2207   1.110       .  S
C2202      H2208   1.111       .  S
C2209      C2210   1.407       .  A
C2209      C2214   1.404       .  A
C2209      H2216   1.084       .  S
C2210      C2211   1.418       .  A
C2211      C2212   1.406       .  A
C2211      C2218   1.508       .  S
C2212      C2213   1.407       .  A
C2212      H2217   1.084       .  S
C2213      C2214   1.418       .  A
C2214      C2215   1.508       .  S
C2215      H2219   1.111       .  S
C2215      H2220   1.110       .  S
C2215      H2221   1.107       .  S
C2218      H2222   1.110       .  S
C2218      H2223   1.108       .  S
C2218      H2224   1.111       .  S
C2225      C2226   1.407       .  A
C2225      C2230   1.405       .  A
C2225      H2232   1.083   1_545  S
C2226      C2227   1.423       .  A
C2227      C2228   1.406       .  A
C2227      C2234   1.509       .  S
C2228      C2229   1.404       .  A
C2228      H2233   1.084       .  S
C2229      C2230   1.419       .  A
C2230      C2231   1.509       .  S
C2231      H2235   1.111       .  S
C2231      H2236   1.109       .  S
C2231      H2237   1.111       .  S
C2234      H2238   1.110       .  S
C2234      H2239   1.110       .  S
C2234      H2240   1.111       .  S
