geometry optimzed in LAMMPS
_audit_creation_date              2020-12-01 
_audit_creation_method            'lammps2cif' 
_symmetry_space_group_name_H-M    'P1' 
_symmetry_Int_Tables_number       1 
_symmetry_cell_setting            triclinic 
loop_ 
_symmetry_equiv_pos_as_xyz 
  x,y,z 
_cell_length_a                    25.96044608 
_cell_length_b                    29.03092159933636 
_cell_length_c                    47.77314872300349 
_cell_angle_alpha                 90.21360357493094 
_cell_angle_beta                  89.83367694355981 
_cell_angle_gamma                 89.63934291204042 
loop_ 
_atom_site_label 
_atom_site_type_symbol 
_atom_site_fract_x 
_atom_site_fract_y 
_atom_site_fract_z 
_atom_site_charge 
O1          O  0.13771211  0.12988507  0.86267730    -0.85500
O2          O  0.10813019  0.12044425  0.91582603    -0.82500
C3          C  0.09724592  0.12672408  0.94104529     0.98000
O4          O  0.09828301  0.16732860  0.95121084    -0.82500
O5          O  0.20012613  0.19365387  0.94411034    -0.85200
C6          C  0.24108415  0.20946267  0.93399964     1.02500
O7          O  0.24112845  0.22711176  0.90969348    -0.78000
O8          O  0.21265369  0.15555624  0.87591679    -0.78100
C9          C  0.18527745  0.12285252  0.86734844     1.02500
O10         O  0.06934668  0.21027193  0.85939275    -0.85500
O11         O  0.03256352  0.19364365  0.91212584    -0.82500
C12         C  0.02922478  0.23250547  0.92440369     0.98000
O13         O  0.06912138  0.25591928  0.92835617    -0.82600
O14         O  0.17011926  0.28520893  0.92645057    -0.85200
C15         C  0.17625327  0.30648404  0.90335778     1.02500
O16         O  0.16986624  0.28535670  0.88052866    -0.78000
O17         O  0.14745639  0.21572605  0.84239294    -0.78100
C18         C  0.09891067  0.21952009  0.83941028     1.02400
Cr19       Cr  0.09000145  0.16643298  0.88815534     1.93700
Cr20       Cr  0.13469795  0.22420125  0.93517847     1.93200
Cr21       Cr  0.18913831  0.21974374  0.87836855     1.39100
O22         O  0.13768228  0.20393515  0.90048676    -1.23200
O23         O  0.84994630  0.87371137  0.11918639    -0.85500
O24         O  0.78928858  0.83180687  0.07905256    -0.82500
C25         C  0.78015015  0.80979001  0.05672840     0.98000
O26         O  0.81115786  0.77974937  0.04777536    -0.82500
O27         O  0.89645648  0.82851269  0.02901907    -0.85200
C28         C  0.93794591  0.85110104  0.03053886     1.02500
O29         O  0.96652799  0.84677649  0.05151619    -0.78000
O30         O  0.90787732  0.89613112  0.08904966    -0.78100
C31         C  0.86885723  0.90505228  0.10404991     1.02500
O32         O  0.88234537  0.78393206  0.13958816    -0.85500
O33         O  0.81559728  0.74340343  0.10208637    -0.82500
C34         C  0.83798907  0.70863260  0.09150582     0.98000
O35         O  0.87471119  0.71374984  0.07426353    -0.82600
O36         O  0.96022956  0.75581418  0.05143112    -0.85200
C37         C  0.99613686  0.75615313  0.06922425     1.02500
O38         O  0.99218304  0.78031771  0.09135115    -0.78000
O39         O  0.94298348  0.83430111  0.13254051    -0.78100
C40         C  0.92271535  0.80400173  0.14783950     1.02400
Cr41       Cr  0.83847616  0.80802483  0.10818967     1.93700
Cr42       Cr  0.88609981  0.77211740  0.05306078     1.93200
Cr43       Cr  0.94763083  0.83693912  0.09093928     1.39100
O44         O  0.89080340  0.80502742  0.08423034    -1.23200
O45         O  0.34686457  0.64369749  0.87670254    -0.85500
O46         O  0.28930262  0.69153297  0.91578239    -0.82500
C47         C  0.28063624  0.71635340  0.93709052     0.98000
O48         O  0.31225480  0.74675650  0.94430724    -0.82500
O49         O  0.39134817  0.69257547  0.96544467    -0.85200
C50         C  0.42969842  0.66545370  0.96500892     1.02500
O51         O  0.46182371  0.66741908  0.94540574    -0.78000
O52         O  0.40127214  0.61950155  0.90822414    -0.78100
C53         C  0.36266930  0.61225896  0.89279902     1.02500
O54         O  0.38632864  0.72941273  0.85476189    -0.85500
O55         O  0.32117835  0.77701302  0.89034560    -0.82500
C56         C  0.34566300  0.81112723  0.89993295     0.98000
O57         O  0.38221930  0.80520457  0.91715537    -0.82600
O58         O  0.46347979  0.75851273  0.94243522    -0.85200
C59         C  0.50008604  0.75362702  0.92513090     1.02500
O60         O  0.49528040  0.72777820  0.90382853    -0.78000
O61         O  0.44275402  0.67528464  0.86368087    -0.78100
C62         C  0.42578744  0.70630879  0.84766389     1.02400
Cr63       Cr  0.33987729  0.71055140  0.88612601     1.93700
Cr64       Cr  0.38797980  0.74797926  0.94014467     1.93200
Cr65       Cr  0.44586926  0.67523516  0.90531320     1.39100
O66         O  0.39164898  0.71211397  0.91020641    -1.23200
O67         O  0.63072728  0.39106845  0.12376546    -0.85500
O68         O  0.59679200  0.39412414  0.07025717    -0.82500
C69         C  0.58314669  0.38331700  0.04599173     0.98000
O70         O  0.58713030  0.34177840  0.03771255    -0.82500
O71         O  0.69069993  0.31891232  0.04262971    -0.85200
C72         C  0.73330574  0.30630940  0.05256379     1.02500
O73         O  0.73599349  0.29239902  0.07777014    -0.78000
O74         O  0.70651876  0.36539523  0.11078895    -0.78100
C75         C  0.67839376  0.39779665  0.11957520     1.02500
O76         O  0.56663143  0.31028041  0.13192893    -0.85500
O77         O  0.52600128  0.31977705  0.07946324    -0.82500
C78         C  0.52344275  0.27978346  0.06870084     0.98000
O79         O  0.56391723  0.25629133  0.06534505    -0.82600
O80         O  0.66702983  0.22951862  0.06474515    -0.85200
C81         C  0.67671870  0.21088564  0.08824944     1.02500
O82         O  0.67028935  0.23391764  0.11044637    -0.78000
O83         O  0.64603344  0.30593049  0.14708786    -0.78100
C84         C  0.59774817  0.30257252  0.15144638     1.02400
Cr85       Cr  0.58358624  0.35087292  0.10070071     1.93700
Cr86       Cr  0.62757273  0.28833226  0.05503457     1.93200
Cr87       Cr  0.68577814  0.30042868  0.11020227     1.39100
O88         O  0.63228998  0.31302019  0.08871977    -1.23200
O89         O  0.87936358  0.12647259  0.62589349    -0.85500
O90         O  0.90903217  0.12794139  0.57191015    -0.82500
C91         C  0.92000868  0.14054710  0.54758030     0.98000
O92         O  0.91901074  0.18306194  0.54132233    -0.82500
O93         O  0.81878858  0.20816567  0.54959709    -0.85200
C94         C  0.77644931  0.21760193  0.56100031     1.02500
O95         O  0.77497352  0.23151308  0.58624135    -0.78000
O96         O  0.80437717  0.15444635  0.61413837    -0.78100
C97         C  0.83194282  0.12047648  0.62067303     1.02500
O98         O  0.94670373  0.20492255  0.63574454    -0.85500
O99         O  0.98436436  0.19824882  0.58170869    -0.82500
C100        C  0.98815894  0.23854982  0.57158088     0.98000
O101        O  0.94917830  0.26455645  0.57145225    -0.82600
O102        O  0.84718440  0.29466927  0.57540127    -0.85200
C103        C  0.84038633  0.31031182  0.60010608     1.02500
O104        O  0.84485905  0.28385486  0.62077005    -0.78000
O105        O  0.86794529  0.20776821  0.65251351    -0.78100
C106        C  0.91626613  0.21214613  0.65582715     1.02400
Cr107      Cr  0.92680938  0.16744619  0.60349338     1.93700
Cr108      Cr  0.88308797  0.23599768  0.56176776     1.93200
Cr109      Cr  0.82677048  0.21856373  0.61703229     1.39100
O110        O  0.87914284  0.20781098  0.59422235    -1.23200
O111        O  0.20709744  0.85584071  0.37690316    -0.85500
O112        O  0.23509547  0.78104410  0.40844852    -0.82500
C113        C  0.23520187  0.79659734  0.43344470     0.98000
O114        O  0.19388410  0.81055163  0.44439623    -0.82500
O115        O  0.09311124  0.83835445  0.45276473    -0.85200
C116        C  0.09232348  0.87980425  0.44428001     1.02500
O117        O  0.10482954  0.88825520  0.41957407    -0.78000
O118        O  0.13189989  0.88452190  0.36583709    -0.78100
C119        C  0.17967410  0.88991232  0.37025743     1.02500
O120        O  0.13951764  0.79902854  0.34161181    -0.85500
O121        O  0.16197554  0.72670098  0.37707485    -0.82500
C122        C  0.16756798  0.70313670  0.39893569     0.98000
O123        O  0.16249772  0.72206194  0.42289085    -0.82600
O124        O  0.06143619  0.75362429  0.42623060    -0.85200
C125        C  0.02235260  0.77931160  0.42436730     1.02500
O126        O  0.02650466  0.81874147  0.41307336    -0.78000
O127        O  0.06156428  0.80758446  0.35873940    -0.78100
C128        C  0.09070144  0.79828044  0.33836779     1.02400
Cr129      Cr  0.18229576  0.79178268  0.37734644     1.93700
Cr130      Cr  0.12808204  0.78264375  0.43412900     1.93200
Cr131      Cr  0.08421618  0.84664161  0.38984372     1.39100
O132        O  0.13118403  0.80642585  0.40023810    -1.23200
O133        O  0.70700581  0.65517233  0.61817018    -0.85500
O134        O  0.73700443  0.72926504  0.58607016    -0.82500
C135        C  0.73706589  0.71335443  0.56119658     0.98000
O136        O  0.69574112  0.69964831  0.55053487    -0.82500
O137        O  0.59497052  0.67352944  0.54252841    -0.85200
C138        C  0.59247305  0.63254225  0.55172053     1.02500
O139        O  0.60385880  0.62458857  0.57667199    -0.78000
O140        O  0.63096337  0.63056474  0.63060425    -0.78100
C141        C  0.67860163  0.62300797  0.62654436     1.02500
O142        O  0.64140180  0.71393451  0.65306849    -0.85500
O143        O  0.66467707  0.78544828  0.61708494    -0.82500
C144        C  0.66950286  0.80871177  0.59504548     0.98000
O145        O  0.66469867  0.78952472  0.57116716    -0.82600
O146        O  0.56339113  0.75999820  0.56736626    -0.85200
C147        C  0.52412337  0.73501397  0.56954794     1.02500
O148        O  0.52773019  0.69643876  0.58190409    -0.78000
O149        O  0.56354742  0.71023010  0.63583937    -0.78100
C150        C  0.59270067  0.71632414  0.65646280     1.02400
Cr151      Cr  0.68395313  0.71998625  0.61718387     1.93700
Cr152      Cr  0.63012231  0.72925104  0.56034886     1.93200
Cr153      Cr  0.58458189  0.66846002  0.60566118     1.39100
O154        O  0.63259651  0.70645048  0.59449249    -1.23200
O155        O  0.38416947  0.38491433  0.37121060    -0.85500
O156        O  0.41187686  0.38382530  0.42539289    -0.82500
C157        C  0.42269575  0.37145040  0.44976304     0.98000
O158        O  0.42238265  0.32894694  0.45607475    -0.82500
O159        O  0.32179051  0.30306827  0.44780872    -0.85200
C160        C  0.28034377  0.29157691  0.43629443     1.02500
O161        O  0.28016875  0.27909635  0.41071068    -0.78000
O162        O  0.30900638  0.35697204  0.38230808    -0.78100
C163        C  0.33650631  0.39092320  0.37592939     1.02500
O164        O  0.45334898  0.30735302  0.36165696    -0.85500
O165        O  0.48863272  0.31347048  0.41578154    -0.82500
C166        C  0.49258565  0.27266292  0.42507625     0.98000
O167        O  0.45357041  0.24728497  0.42562144    -0.82600
O168        O  0.35301271  0.21695891  0.42224534    -0.85200
C169        C  0.34723497  0.20069812  0.39766626     1.02500
O170        O  0.35196364  0.22686300  0.37682332    -0.78000
O171        O  0.37529112  0.30330248  0.34445288    -0.78100
C172        C  0.42404099  0.30098332  0.34113271     1.02400
Cr173      Cr  0.43132931  0.34429331  0.39393465     1.93700
Cr174      Cr  0.38739627  0.27587971  0.43562038     1.93200
Cr175      Cr  0.33270522  0.29249149  0.37994382     1.39100
O176        O  0.38393738  0.30383917  0.40304641    -1.23200
C177        C  0.53500032  0.55946280  0.49316236    -0.27700
C178        C  0.51950167  0.52046364  0.50842081     0.01900
C179        C  0.52968733  0.51843485  0.53719311     0.30000
C180        C  0.55525855  0.55440908  0.55027385    -0.19500
C181        C  0.57041217  0.59392956  0.53540004    -0.28900
C182        C  0.56012868  0.59623432  0.50650311     0.44000
C183        C  0.49246103  0.48183189  0.49463361     0.05200
O184        O  0.51352793  0.48183029  0.55297382    -0.57400
H185        H  0.56142407  0.55174184  0.57260688     0.18100
O186        O  0.57364163  0.63421359  0.49124168    -0.64200
H187        H  0.52764500  0.56136581  0.47089118     0.16600
C188        C  0.44692788  0.48930553  0.47941306     0.28800
C189        C  0.42205872  0.45210909  0.46674114    -0.25100
C190        C  0.44194330  0.40711590  0.46899671    -0.24300
C191        C  0.48644908  0.39940980  0.48509937     0.40300
C192        C  0.51153471  0.43667721  0.49759516    -0.26800
O193        O  0.42604524  0.53268014  0.47721996    -0.58700
H194        H  0.38800968  0.45866021  0.45425024     0.15900
O195        O  0.50826343  0.35636342  0.48672597    -0.60100
H196        H  0.54677575  0.43043405  0.50911791     0.14400
H197        H  0.60874441  0.62736379  0.48405035     0.46200
H198        H  0.43417161  0.54287047  0.45791963     0.41600
H199        H  0.49520135  0.34323591  0.50449207     0.45000
H200        H  0.47817327  0.49011890  0.55919820     0.36500
C201        C  0.90017146  0.78724963  0.46810945    -0.27700
C202        C  0.89796155  0.74268017  0.47937493     0.01900
C203        C  0.93210935  0.70872242  0.46906647     0.30000
C204        C  0.96980403  0.72030268  0.44929622    -0.19500
C205        C  0.97445370  0.76571371  0.43938001    -0.28900
C206        C  0.93769754  0.79886828  0.44820703     0.44000
C207        C  0.86030981  0.73217859  0.50201161     0.05200
O208        O  0.93050513  0.66453838  0.47909047    -0.57400
H209        H  0.99715236  0.69401687  0.44276309     0.18100
O210        O  0.94015063  0.84355707  0.43913181    -0.64200
H211        H  0.87328012  0.81350339  0.47522231     0.16600
C212        C  0.85845821  0.75840715  0.52693167     0.28800
C213        C  0.82049392  0.74969727  0.54723368    -0.25100
C214        C  0.78344187  0.71534920  0.54292308    -0.24300
C215        C  0.78707902  0.68764567  0.51856891     0.40300
C216        C  0.82526253  0.69610639  0.49849302    -0.26800
O217        O  0.89395980  0.79233665  0.53171114    -0.58700
H218        H  0.81854728  0.77142086  0.56570294     0.15900
O219        O  0.75321686  0.65226919  0.51408390    -0.60100
H220        H  0.82637690  0.67528673  0.47962718     0.14400
H221        H  0.91833418  0.84457745  0.42213825     0.46200
H222        H  0.87527291  0.82177118  0.52859725     0.41600
H223        H  0.72827674  0.66408136  0.50010384     0.45000
H224        H  0.95335541  0.66446703  0.49569068     0.36500
C225        C  0.40276140  0.72473959  0.52560601    -0.27700
C226        C  0.39901625  0.76898538  0.51397228     0.01900
C227        C  0.43266441  0.80347944  0.52363535     0.30000
C228        C  0.47094544  0.79279898  0.54330422    -0.19500
C229        C  0.47659490  0.74782342  0.55384374    -0.28900
C230        C  0.44086723  0.71401346  0.54533150     0.44000
C231        C  0.36020491  0.77854303  0.49169811     0.05200
O232        O  0.42983445  0.84736782  0.51319327    -0.57400
H233        H  0.49769040  0.81947006  0.54944284     0.18100
O234        O  0.44492746  0.66945378  0.55453526    -0.64200
H235        H  0.37649731  0.69800212  0.51898850     0.16600
C236        C  0.35700791  0.75075527  0.46743516     0.28800
C237        C  0.31833469  0.75894645  0.44747034    -0.25100
C238        C  0.28178927  0.79426196  0.45146475    -0.24300
C239        C  0.28631995  0.82309777  0.47524468     0.40300
C240        C  0.32524913  0.81521526  0.49495746    -0.26800
O241        O  0.39197511  0.71585916  0.46290252    -0.58700
H242        H  0.31554719  0.73621695  0.42950392     0.15900
O243        O  0.25274405  0.85918999  0.47945711    -0.60100
H244        H  0.32706782  0.83707229  0.51335507     0.14400
H245        H  0.42269945  0.66804366  0.57142106     0.46200
H246        H  0.37287958  0.68696094  0.46644090     0.41600
H247        H  0.22804192  0.84838508  0.49385218     0.45000
H248        H  0.45135161  0.84686153  0.49600733     0.36500
C249        C  0.30273197  0.08962207  0.36236627    -0.27700
C250        C  0.28176824  0.06537141  0.38499520     0.01900
C251        C  0.28724054  0.08372020  0.41219599     0.30000
C252        C  0.31112759  0.12661303  0.41620389    -0.19500
C253        C  0.32961289  0.15224246  0.39335583    -0.28900
C254        C  0.32614018  0.13260470  0.36626636     0.44000
C255        C  0.25412686  0.02122598  0.37974592     0.05200
O256        O  0.27055361  0.05935841  0.43502662    -0.57400
H257        H  0.31368907  0.14040490  0.43725147     0.18100
O258        O  0.34541059  0.15506050  0.34333147    -0.64200
H259        H  0.29966264  0.07573066  0.34135670     0.16600
C260        C  0.20248211  0.01520097  0.38821780     0.28800
C261        C  0.17746631  0.97323048  0.38321203    -0.25100
C262        C  0.20324895  0.93639966  0.36998745    -0.24300
C263        C  0.25428711  0.94294819  0.36068229     0.40300
C264        C  0.27910016  0.98511395  0.36535728    -0.26800
O265        O  0.17622444  0.04992431  0.40171446    -0.58700
H266        H  0.13848159  0.96882788  0.39081673     0.15900
O267        O  0.28067242  0.90799744  0.34748106    -0.60100
H268        H  0.31850265  0.98925375  0.35831089     0.14400
H269        H  0.31517647  0.16997866  0.33441663     0.46200
H270        H  0.16029631  0.06846668  0.38661452     0.41600
H271        H  0.27083324  0.91035067  0.32749064     0.45000
H272        H  0.24128685  0.07737396  0.44289303     0.36500
C273        C  0.20173507  0.58641545  0.36756830    -0.27700
C274        C  0.23595555  0.56878779  0.38760380     0.01900
C275        C  0.24415449  0.59402749  0.41245475     0.30000
C276        C  0.21931169  0.63656693  0.41663672    -0.19500
C277        C  0.18624136  0.65488606  0.39619985    -0.28900
C278        C  0.17699450  0.62893552  0.37168150     0.44000
C279        C  0.26228977  0.52382474  0.38250819     0.05200
O280        O  0.27691739  0.57771293  0.43264328    -0.57400
H281        H  0.22759449  0.65610038  0.43544782     0.18100
O282        O  0.14472336  0.64526199  0.35125941    -0.64200
H283        H  0.19489201  0.56749261  0.34835744     0.16600
C284        C  0.23361771  0.48391096  0.37675769     0.28800
C285        C  0.25862328  0.44144580  0.37319282    -0.25100
C286        C  0.31251925  0.43756650  0.37524656    -0.24300
C287        C  0.34144139  0.47786356  0.38007833     0.40300
C288        C  0.31626851  0.52043374  0.38377662    -0.26800
O289        O  0.18086369  0.48571105  0.37550943    -0.58700
H290        H  0.23543603  0.41110338  0.36959629     0.15900
O291        O  0.39393688  0.47572081  0.38300069    -0.60100
H292        H  0.33897292  0.55085893  0.38798781     0.14400
H293        H  0.11006865  0.63381522  0.35640851     0.46200
H294        H  0.16901875  0.48253205  0.39515998     0.41600
H295        H  0.40795206  0.48298799  0.36421010     0.45000
H296        H  0.25532218  0.55803912  0.44481425     0.36500
C297        C  0.81287303  0.99078819  0.61390104    -0.27700
C298        C  0.75899901  0.98838453  0.61169326     0.01900
C299        C  0.72955465  0.02884984  0.61479447     0.30000
C300        C  0.75390527  0.07100163  0.61936092    -0.19500
C301        C  0.80799229  0.07404927  0.62071156    -0.28900
C302        C  0.83746482  0.03317035  0.61831271     0.44000
C303        C  0.73354596  0.94364105  0.60627064     0.02000
O304        O  0.67689554  0.02775141  0.61260535    -0.57400
H305        H  0.73016318  0.10172952  0.62097309     0.18100
O306        O  0.89022008  0.03426716  0.61945233    -0.64200
H307        H  0.83597306  0.95973500  0.61188501     0.16600
C308        C  0.74340123  0.91841842  0.58157033     0.28800
C309        C  0.71954188  0.87575116  0.57721544    -0.25100
C310        C  0.68648891  0.85720334  0.59755827    -0.24300
C311        C  0.67548135  0.88331430  0.62188080     0.40300
C312        C  0.69879977  0.92612506  0.62600623    -0.26800
O313        O  0.77579985  0.93550594  0.56144687    -0.58700
H314        H  0.72879037  0.85623100  0.55846759     0.15900
O315        O  0.64294564  0.86683486  0.64212938    -0.60100
H316        H  0.69059626  0.94532709  0.64501531     0.14400
H317        H  0.90178857  0.03549233  0.59966536     0.46200
H318        H  0.80914115  0.91937828  0.56434426     0.41600
H319        H  0.60786487  0.87567342  0.63588543     0.45000
H320        H  0.66965391  0.03206064  0.59240711     0.36500
C321        C  0.69687915  0.49352576  0.62149913    -0.27700
C322        C  0.75025784  0.48910777  0.62548585     0.01900
C323        C  0.77855743  0.52814797  0.63358821     0.30000
C324        C  0.75412106  0.57131742  0.63547254    -0.19500
C325        C  0.70112870  0.57622502  0.63008948    -0.28900
C326        C  0.67217395  0.53642351  0.62412856     0.44000
C327        C  0.77628031  0.44456031  0.61883546     0.05200
O328        O  0.83080875  0.52514610  0.63745051    -0.57400
H329        H  0.77715167  0.60136578  0.64014171     0.18100
O330        O  0.62054755  0.53952827  0.61843936    -0.64200
H331        H  0.67449039  0.46374011  0.61545395     0.16600
C332        C  0.80497194  0.42035521  0.63901325     0.28800
C333        C  0.82779504  0.37785834  0.63215669    -0.25100
C334        C  0.82237407  0.35841397  0.60525639    -0.24300
C335        C  0.79434216  0.38318155  0.58493907     0.40300
C336        C  0.77145729  0.42564865  0.59186335    -0.26800
O337        O  0.80957423  0.43716338  0.66575099    -0.58700
H338        H  0.84871020  0.35943489  0.64825424     0.15900
O339        O  0.78618226  0.36497313  0.55881111    -0.60100
H340        H  0.74931882  0.44376911  0.57611934     0.14400
H341        H  0.60308266  0.53407499  0.63660086     0.46200
H342        H  0.77956347  0.42473555  0.67608616     0.41600
H343        H  0.81269247  0.37918907  0.54667118     0.45000
H344        H  0.83597131  0.52817295  0.65793628     0.36500
C345        C  0.01101336  0.07678996  0.49955292    -0.27700
C346        C  0.99334153  0.03136096  0.50247014     0.01900
C347        C  0.94790934  0.02324506  0.51774167     0.30000
C348        C  0.92207181  0.05993197  0.53068238    -0.19500
C349        C  0.94038872  0.10521212  0.52831294    -0.28900
C350        C  0.98456410  0.11366437  0.51204127     0.44000
C351        C  0.02140564  0.99304843  0.48851833     0.05200
O352        O  0.92887093  0.97952639  0.52051631    -0.57400
H353        H  0.88840263  0.05280025  0.54338652     0.18100
O354        O  0.00478906  0.15710111  0.51029032    -0.64200
H355        H  0.04620681  0.08360854  0.48809636     0.16600
C356        C  0.03223842  0.99555090  0.45979761     0.28800
C357        C  0.05685028  0.95893979  0.44639824    -0.25100
C358        C  0.07101493  0.91868373  0.46096157    -0.24300
C359        C  0.06057664  0.91614441  0.48984670     0.40300
C360        C  0.03633679  0.95344668  0.50350262    -0.26800
O361        O  0.01579922  0.03244672  0.44421669    -0.58700
H362        H  0.06302398  0.96177437  0.42404340     0.15900
O363        O  0.07409167  0.87783539  0.50489953    -0.60100
H364        H  0.02872251  0.95129497  0.52576469     0.14400
H365        H  0.99383377  0.16888809  0.49177147     0.46200
H366        H  0.04743476  0.04972271  0.43939193     0.41600
H367        H  0.04267504  0.85858268  0.50536963     0.45000
H368        H  0.90618645  0.97499491  0.50408270     0.36500
C369        C  0.69093773  0.19549236  0.49880643    -0.27700
C370        C  0.65244032  0.22867600  0.50305104     0.01900
C371        C  0.65029408  0.25318146  0.52852844     0.30000
C372        C  0.68886342  0.24662368  0.54862818    -0.19500
C373        C  0.72993515  0.21614914  0.54335207    -0.28900
C374        C  0.72941576  0.18894453  0.51873083     0.44000
C375        C  0.61556670  0.23821007  0.48037539     0.05200
O376        O  0.61060345  0.28345379  0.53384543    -0.57400
H377        H  0.68816159  0.26730273  0.56755432     0.18100
O378        O  0.76765998  0.15728235  0.51329532    -0.64200
H379        H  0.69221923  0.17580600  0.47949193     0.16600
C380        C  0.61486394  0.28115893  0.46689160     0.28800
C381        C  0.57744440  0.29052092  0.44662543    -0.25100
C382        C  0.53985054  0.25764614  0.43989558    -0.24300
C383        C  0.54355090  0.21325640  0.45190078     0.40300
C384        C  0.58117834  0.20395423  0.47199273    -0.26800
O385        O  0.65071466  0.31402952  0.47341203    -0.58700
H386        H  0.57607376  0.32460152  0.43748536     0.15900
O387        O  0.50886188  0.17943233  0.44544246    -0.60100
H388        H  0.58235357  0.17037481  0.48181652     0.14400
H389        H  0.75749680  0.12923665  0.52367805     0.46200
H390        H  0.63147764  0.33853466  0.48359531     0.41600
H391        H  0.52233773  0.16485295  0.42807990     0.45000
H392        H  0.62624155  0.31452592  0.53350132     0.36500
C393        C  0.07592501  0.29909493  0.51964182    -0.27700
C394        C  0.11471890  0.26591660  0.51568290     0.01900
C395        C  0.11513399  0.22645407  0.53270737     0.30000
C396        C  0.07583849  0.21976705  0.55252089    -0.19500
C397        C  0.03511955  0.25171300  0.55548672    -0.28900
C398        C  0.03639735  0.29236675  0.53920632     0.44000
C399        C  0.15492310  0.27352949  0.49402882     0.05200
O400        O  0.15425283  0.19464045  0.53039335    -0.57400
H401        H  0.07618725  0.18839049  0.56472242     0.18100
O402        O  0.99777311  0.32469736  0.54099058    -0.64200
H403        H  0.07546960  0.32987994  0.50687973     0.16600
C404        C  0.16082221  0.24359392  0.47090601     0.28800
C405        C  0.19967550  0.25158671  0.45096378    -0.25100
C406        C  0.23361028  0.28873858  0.45406695    -0.24300
C407        C  0.22645203  0.31940783  0.47677621     0.40300
C408        C  0.18726062  0.31182205  0.49636412    -0.26800
O409        O  0.12816997  0.20703563  0.46741304    -0.58700
H410        H  0.20473456  0.22748245  0.43378555     0.15900
O411        O  0.25841682  0.35638687  0.48042666    -0.60100
H412        H  0.18280708  0.33540105  0.51385636     0.14400
H413        H  0.00970337  0.34726672  0.55514959     0.46200
H414        H  0.14954649  0.17910899  0.47057183     0.41600
H415        H  0.24432411  0.38081065  0.46811554     0.45000
H416        H  0.13822816  0.16667487  0.52231688     0.36500
C417        C  0.50234005  0.27287908  0.20896692    -0.27700
C418        C  0.52691142  0.29012951  0.23289286     0.01900
C419        C  0.57763212  0.30714397  0.23018832     0.30000
C420        C  0.60190994  0.30820829  0.20384917    -0.19500
C421        C  0.57607164  0.29326140  0.17972514    -0.28900
C422        C  0.52623543  0.27441359  0.18268174     0.44000
C423        C  0.49894406  0.29086287  0.26031912     0.05200
O424        O  0.60311752  0.32463335  0.25293329    -0.57400
H425        H  0.63994720  0.32308795  0.20211159     0.18100
O426        O  0.49977252  0.25838471  0.15985172    -0.64200
H427        H  0.46401624  0.25855363  0.21058445     0.16600
C428        C  0.44843306  0.30906465  0.26278007     0.28800
C429        C  0.42325335  0.31000737  0.28886775    -0.25100
C430        C  0.44803071  0.29399806  0.31306761    -0.24300
C431        C  0.49824138  0.27517734  0.31047940     0.40300
C432        C  0.52294120  0.27350350  0.28438051    -0.26800
O433        O  0.42385750  0.32746628  0.23999738    -0.58700
H434        H  0.38511352  0.32519837  0.29035429     0.15900
O435        O  0.52404050  0.25879562  0.33344050    -0.60100
H436        H  0.56123581  0.25861480  0.28298803     0.14400
H437        H  0.51216358  0.22631179  0.15704888     0.46200
H438        H  0.43666187  0.35949458  0.23861105     0.41600
H439        H  0.51259773  0.22645898  0.33552007     0.45000
H440        H  0.59194849  0.35730221  0.25426129     0.36500
C441        C  0.49483515  0.71619385  0.71606370    -0.27700
C442        C  0.52507591  0.72771197  0.73925103     0.01900
C443        C  0.57779927  0.73735909  0.73497286     0.30000
C444        C  0.59940006  0.73444405  0.70798005    -0.19500
C445        C  0.56902605  0.72254186  0.68475115    -0.28900
C446        C  0.51592068  0.71400146  0.68915290     0.44000
C447        C  0.50145734  0.72631314  0.76774852     0.05200
O448        O  0.60870419  0.74924003  0.75704676    -0.57400
H449        H  0.64009969  0.74120168  0.70529065     0.18100
O450        O  0.48439571  0.70106283  0.66754997    -0.64200
H451        H  0.45464288  0.70744628  0.71887464     0.16600
C452        C  0.45338929  0.74748989  0.77352451     0.28800
C453        C  0.42926002  0.74123219  0.79956741    -0.25100
C454        C  0.45243099  0.71418072  0.82042008    -0.24300
C455        C  0.50166312  0.69472057  0.81495405     0.40300
C456        C  0.52523945  0.70045049  0.78884122    -0.26800
O457        O  0.42925760  0.77395160  0.75371776    -0.58700
H458        H  0.39199100  0.75714175  0.80327830     0.15900
O459        O  0.52712258  0.66936815  0.83482024    -0.60100
H460        H  0.56181721  0.68345574  0.78486010     0.14400
H461        H  0.46740054  0.72991957  0.66129280     0.46200
H462        H  0.44567999  0.80462448  0.75506340     0.41600
H463        H  0.54751928  0.69207064  0.84561108     0.45000
H464        H  0.60616962  0.78327359  0.75836872     0.36500
C465        C  0.42972188  0.54650253  0.99367598    -0.27700
C466        C  0.47941845  0.54461982  0.00529828     0.01900
C467        C  0.50659566  0.58602894  0.00919446     0.30000
C468        C  0.48624365  0.62755114  0.99920164    -0.19500
C469        C  0.43834038  0.62886720  0.98567554    -0.28900
C470        C  0.40907485  0.58829461  0.98399522     0.44000
C471        C  0.50347495  0.49949744  0.01251516     0.05200
O472        O  0.55435146  0.58594891  0.02140520    -0.57400
H473        H  0.50975363  0.65825429  0.00004909     0.18100
O474        O  0.36320462  0.58801282  0.96982563    -0.64200
H475        H  0.40814799  0.51508582  0.99054916     0.16600
C476        C  0.47862143  0.46875713  0.03073321     0.28800
C477        C  0.50389692  0.42856385  0.03935814    -0.25100
C478        C  0.55409489  0.41822274  0.03018206    -0.24300
C479        C  0.57815669  0.44753560  0.01091868     0.40300
C480        C  0.55276937  0.48782163  0.00210653    -0.26800
O481        O  0.43085906  0.47894852  0.04152815    -0.58700
H482        H  0.48537996  0.40671257  0.05467973     0.15900
O483        O  0.62755748  0.43876861  0.00208275    -0.60100
H484        H  0.57224032  0.51075136  0.98776454     0.14400
H485        H  0.33717911  0.59896249  0.98358766     0.46200
H486        H  0.43748707  0.49791646  0.05843437     0.41600
H487        H  0.62387252  0.41928351  0.98512400     0.45000
H488        H  0.54760375  0.58645905  0.04184575     0.36500
C489        C  0.94730333  0.76174037  0.22281048    -0.27700
C490        C  0.99540325  0.78187354  0.22854821     0.01900
C491        C  0.02004293  0.80671192  0.20718851     0.30000
C492        C  0.99623386  0.81245763  0.18116890    -0.19500
C493        C  0.94727928  0.79386342  0.17551276    -0.28900
C494        C  0.92352774  0.76710244  0.19649563     0.44000
C495        C  0.01803673  0.78059187  0.25729292     0.05200
O496        O  0.06683066  0.82703251  0.21182932    -0.57400
H497        H  0.01616794  0.83245931  0.16545302     0.18100
O498        O  0.87641268  0.74739223  0.19197432    -0.64200
H499        H  0.92781885  0.74223678  0.23891972     0.16600
C500        C  0.99095152  0.79971077  0.28012523     0.28800
C501        C  0.01492118  0.80417111  0.30624489    -0.25100
C502        C  0.06628538  0.78972839  0.31048705    -0.24300
C503        C  0.09270888  0.76870987  0.28790988     0.40300
C504        C  0.06871720  0.76452157  0.26160546    -0.26800
O505        O  0.94220462  0.81724751  0.27662994    -0.58700
H506        H  0.99341698  0.82051664  0.32306345     0.15900
O507        O  0.14210029  0.75265076  0.29112404    -0.60100
H508        H  0.09009518  0.74937842  0.24433503     0.14400
H509        H  0.88417312  0.71604428  0.18472559     0.46200
H510        H  0.91880624  0.79339592  0.28415099     0.41600
H511        H  0.13839457  0.72098454  0.29855685     0.45000
H512        H  0.05861078  0.85762100  0.22007253     0.36500
C513        C  0.13291367  0.74344446  0.04548687    -0.27700
C514        C  0.12616519  0.71143721  0.02356483     0.01900
C515        C  0.08078874  0.68522576  0.02299302     0.30000
C516        C  0.04074925  0.69543957  0.04174363    -0.19500
C517        C  0.04449703  0.73254546  0.06071681    -0.28900
C518        C  0.09235377  0.75436279  0.06388122     0.44000
C519        C  0.16254952  0.71105022  0.99934857     0.05200
O520        O  0.07301172  0.65277552  0.00251242    -0.57400
H521        H  0.00442417  0.67769223  0.03924887     0.18100
O522        O  0.09775821  0.79059955  0.08209704    -0.64200
H523        H  0.16829900  0.76288506  0.04687082     0.16600
C524        C  0.17520381  0.75277917  0.98605931     0.28800
C525        C  0.21059972  0.75303921  0.96402588    -0.25100
C526        C  0.23388493  0.71216279  0.95448783    -0.24300
C527        C  0.21877069  0.66997212  0.96624908     0.40300
C528        C  0.18354983  0.66961024  0.98871723    -0.26800
O529        O  0.15246583  0.79353324  0.99419875    -0.58700
H530        H  0.22149222  0.78579730  0.95500327     0.15900
O531        O  0.24116095  0.62948022  0.95752368    -0.60100
H532        H  0.17392427  0.63710314  0.99840543     0.14400
H533        H  0.11401377  0.77718748  0.09898634     0.46200
H534        H  0.17980028  0.81109124  0.00392974     0.41600
H535        H  0.21920774  0.61841640  0.94196577     0.45000
H536        H  0.05729794  0.66978250  0.98668512     0.36500
C537        C  0.58996632  0.83056331  0.96409409    -0.27700
C538        C  0.62932073  0.79910261  0.97055741     0.01900
C539        C  0.63196942  0.75702323  0.95563794     0.30000
C540        C  0.59245995  0.74478464  0.93709703    -0.19500
C541        C  0.54991086  0.77405403  0.93324371    -0.28900
C542        C  0.55052235  0.81832865  0.94556484     0.44000
C543        C  0.66305316  0.80735067  0.99523413     0.05200
O544        O  0.67088760  0.72603692  0.96073935    -0.57400
H545        H  0.59250961  0.71048416  0.92806717     0.18100
O546        O  0.50984638  0.84805545  0.94190683    -0.64200
H547        H  0.58744903  0.86317522  0.97512045     0.16600
C548        C  0.69493796  0.84635329  0.99745676     0.28800
C549        C  0.72987317  0.85009140  0.01984322    -0.25100
C550        C  0.73249625  0.81579032  0.04046486    -0.24300
C551        C  0.69777930  0.77882045  0.03930442     0.40300
C552        C  0.66351091  0.77482818  0.01691398    -0.26800
O553        O  0.69542061  0.87878776  0.97667113    -0.58700
H554        H  0.75747616  0.87793879  0.01994223     0.15900
O555        O  0.70037221  0.74410788  0.05866823    -0.60100
H556        H  0.63840732  0.74518126  0.01593200     0.14400
H557        H  0.51640901  0.86316841  0.92367243     0.46200
H558        H  0.67513203  0.90512491  0.98420373     0.41600
H559        H  0.67704431  0.75397931  0.07405844     0.45000
H560        H  0.69983315  0.73591002  0.94862516     0.36500
C561        C  0.83729428  0.03176228  0.08869874    -0.27700
C562        C  0.78668538  0.03562666  0.09923476     0.01900
C563        C  0.76444684  0.99670149  0.11189686     0.30000
C564        C  0.79255270  0.95543232  0.11406834    -0.19500
C565        C  0.84303781  0.95127062  0.10347039    -0.28900
C566        C  0.86534576  0.99019743  0.09068461     0.44000
C567        C  0.75696216  0.07982383  0.09627946     0.05200
O568        O  0.71387940  0.99763858  0.12039468    -0.57400
H569        H  0.77369066  0.92594300  0.12329225     0.18100
O570        O  0.91405685  0.98794201  0.07956350    -0.64200
H571        H  0.85517691  0.06114845  0.07879907     0.16600
C572        C  0.73195020  0.10068775  0.11939137     0.28800
C573        C  0.70389692  0.14177956  0.11606132    -0.25100
C574        C  0.70081107  0.16396881  0.08996530    -0.24300
C575        C  0.72622476  0.14328432  0.06683890     0.40300
C576        C  0.75383661  0.10177415  0.07013386    -0.26800
O577        O  0.73610710  0.08213815  0.14565010    -0.58700
H578        H  0.68569552  0.15707280  0.13432476     0.15900
O579        O  0.72685391  0.16448638  0.04123820    -0.60100
H580        H  0.77312674  0.08674185  0.05211881     0.14400
H581        H  0.93732835  0.99626188  0.09518526     0.46200
H582        H  0.76785893  0.09561731  0.15364838     0.41600
H583        H  0.69872414  0.14987375  0.03045059     0.45000
H584        H  0.71452468  0.99262932  0.14092302     0.36500
C585        C  0.80723887  0.58002067  0.09067687    -0.27700
C586        C  0.77267448  0.57679023  0.11329146     0.01900
C587        C  0.76245116  0.61620577  0.12957670     0.30000
C588        C  0.78538667  0.65825069  0.12264592    -0.19500
C589        C  0.81860579  0.66216879  0.09936576    -0.28900
C590        C  0.83018265  0.62214648  0.08366925     0.44000
C591        C  0.74713828  0.53215883  0.11922670     0.05200
O592        O  0.73136665  0.61356147  0.15280581    -0.57400
H593        H  0.77659539  0.68808264  0.13553175     0.18100
O594        O  0.86194361  0.62404085  0.06073173    -0.64200
H595        H  0.81557079  0.54986252  0.07797897     0.16600
C596        C  0.69320952  0.52747118  0.11744105     0.28800
C597        C  0.67071029  0.48372194  0.11952756    -0.25100
C598        C  0.70131005  0.44417031  0.12340904    -0.24300
C599        C  0.75496648  0.44949991  0.12702519     0.40300
C600        C  0.77738090  0.49307252  0.12471644    -0.26800
O601        O  0.66272355  0.56481306  0.11122933    -0.58700
H602        H  0.62956618  0.48051410  0.11639398     0.15900
O603        O  0.78627381  0.41211181  0.13173907    -0.60100
H604        H  0.81881435  0.49622756  0.12650464     0.14400
H605        H  0.89671477  0.61607790  0.06784590     0.46200
H606        H  0.64201357  0.57080062  0.12835160     0.41600
H607        H  0.78441872  0.40676944  0.15220738     0.45000
H608        H  0.70042505  0.63237996  0.14842276     0.36500
C609        C  0.00987932  0.25327043  0.71071532    -0.27700
C610        C  0.99077176  0.23190355  0.73479709     0.01900
C611        C  0.94384227  0.20773782  0.73338182     0.30000
C612        C  0.91781475  0.20378272  0.70781587    -0.19500
C613        C  0.93853378  0.22311091  0.68342239    -0.28900
C614        C  0.98413615  0.24914852  0.68521660     0.44000
C615        C  0.02112204  0.23348320  0.76097733     0.05200
O616        O  0.92429961  0.18622233  0.75657994    -0.57400
H617        H  0.88295453  0.18352411  0.70678113     0.18100
O618        O  0.00455802  0.26989547  0.66197543    -0.64200
H619        H  0.04540526  0.27261379  0.71161635     0.16600
C620        C  0.07196409  0.21611071  0.76185937     0.28800
C621        C  0.09879558  0.21491087  0.78726146    -0.25100
C622        C  0.07522755  0.23028020  0.81207745    -0.24300
C623        C  0.02530402  0.24988775  0.81082149     0.40300
C624        C  0.99867094  0.25118195  0.78545872    -0.26800
O625        O  0.09485595  0.19822981  0.73826143    -0.58700
H626        H  0.13683218  0.19936962  0.78781047     0.15900
O627        O  0.00142537  0.26650084  0.83447936    -0.60100
H628        H  0.95995931  0.26533996  0.78498195     0.14400
H629        H  0.98529838  0.29932764  0.66008021     0.46200
H630        H  0.08428132  0.16547101  0.73766136     0.41600
H631        H  0.01251754  0.29903118  0.83604860     0.45000
H632        H  0.94009961  0.15502738  0.75644847     0.36500
C633        C  0.06575375  0.00308698  0.95624123    -0.27700
C634        C  0.02333144  0.00700823  0.97441449     0.01900
C635        C  0.00934407  0.05130920  0.98446287     0.30000
C636        C  0.03634919  0.09052567  0.97531897    -0.19500
C637        C  0.07772282  0.08619979  0.95647263    -0.28900
C638        C  0.09334266  0.04168166  0.94783976     0.44000
C639        C  0.99824634  0.96385061  0.98449653     0.05200
O640        O  0.97068215  0.05648384  0.00389082    -0.57400
H641        H  0.02354386  0.12438813  0.98207982     0.18100
O642        O  0.13462216  0.03553228  0.93016656    -0.64200
H643        H  0.07771892  0.96966100  0.94832288     0.16600
C644        C  0.94417982  0.95825571  0.98621358     0.28800
C645        C  0.92336608  0.91869025  0.99887514    -0.25100
C646        C  0.95593009  0.88377831  0.00900631    -0.24300
C647        C  0.00943921  0.88725752  0.00434985     0.40300
C648        C  0.03002407  0.92699106  0.99260823    -0.26800
O649        O  0.91140058  0.99141310  0.97613433    -0.58700
H650        H  0.88216120  0.91663606  0.00225920     0.15900
O651        O  0.04227662  0.85248800  0.01244704    -0.60100
H652        H  0.07154282  0.92962341  0.99105630     0.14400
H653        H  0.16536528  0.03589956  0.94243718     0.46200
H654        H  0.90623197  0.98335223  0.95615540     0.41600
H655        H  0.06031907  0.86424516  0.02927873     0.45000
H656        H  0.94301535  0.07405986  0.99431719     0.36500
C657        C  0.25565356  0.52304003  0.88922372    -0.27700
C658        C  0.28092338  0.48288604  0.89817668     0.01900
C659        C  0.33390742  0.48511926  0.90456851     0.30000
C660        C  0.36032293  0.52717841  0.90251749    -0.19500
C661        C  0.33492552  0.56746008  0.89370473    -0.28900
C662        C  0.28201266  0.56487037  0.88689466     0.44000
C663        C  0.25151936  0.43896391  0.90028896     0.05200
O664        O  0.36065751  0.44592312  0.91157180    -0.57400
H665        H  0.40093912  0.52814565  0.90761651     0.18100
O666        O  0.25488530  0.60350636  0.87924482    -0.64200
H667        H  0.21493159  0.52211173  0.88434362     0.16600
C668        C  0.24963829  0.41359662  0.92538797     0.28800
C669        C  0.22293876  0.37170861  0.92651656    -0.25100
C670        C  0.19722138  0.35427289  0.90288291    -0.24300
C671        C  0.19725167  0.38086300  0.87811124     0.40300
C672        C  0.22411615  0.42262121  0.87701593    -0.26800
O673        O  0.27402305  0.42927181  0.94895989    -0.58700
H674        H  0.22380088  0.35213278  0.94577308     0.15900
O675        O  0.17237286  0.36587649  0.85451253    -0.60100
H676        H  0.22446298  0.44189491  0.85763536     0.14400
H677        H  0.25318093  0.60223720  0.85852000     0.46200
H678        H  0.24932731  0.45107740  0.95784798     0.41600
H679        H  0.13645206  0.37726379  0.85652105     0.45000
H680        H  0.37080751  0.45012764  0.93141415     0.36500
C681        C  0.28151299  0.90829895  0.85946645    -0.27700
C682        C  0.28212025  0.94425684  0.87908916     0.01900
C683        C  0.30644383  0.93710399  0.90509992     0.30000
C684        C  0.32929979  0.89432270  0.91124173    -0.19500
C685        C  0.32799933  0.85799782  0.89178719    -0.28900
C686        C  0.30436521  0.86562432  0.86553551     0.44000
C687        C  0.25764354  0.98927280  0.87227352     0.05200
O688        O  0.30528743  0.97090322  0.92525067    -0.57400
H689        H  0.34615241  0.88899691  0.93170532     0.18100
O690        O  0.30281383  0.83136227  0.84570474    -0.64200
H691        H  0.26331685  0.91338979  0.83931853     0.16600
C692        C  0.28722289  0.02959119  0.87149236     0.28800
C693        C  0.26329666  0.07240087  0.86784375    -0.25100
C694        C  0.20947148  0.07628884  0.86480945    -0.24300
C695        C  0.18018376  0.03546156  0.86360949     0.40300
C696        C  0.20436423  0.99239560  0.86733555    -0.26800
O697        O  0.33956599  0.02765725  0.87516082    -0.58700
H698        H  0.28706477  0.10292309  0.86851624     0.15900
O699        O  0.12766857  0.03725183  0.86078712    -0.60100
H700        H  0.18114586  0.96151664  0.86754086     0.14400
H701        H  0.33572572  0.83389666  0.83524498     0.46200
H702        H  0.35409447  0.02327187  0.85611120     0.41600
H703        H  0.12140485  0.03490257  0.84036837     0.45000
H704        H  0.34093998  0.98286360  0.92617236     0.36500
C705        C  0.43223627  0.20904267  0.02493078    -0.27700
C706        C  0.39567941  0.24254767  0.01753435     0.01900
C707        C  0.39584441  0.28544344  0.03142011     0.30000
C708        C  0.43523483  0.29572256  0.05042134    -0.19500
C709        C  0.47491950  0.26373864  0.05570623    -0.28900
C710        C  0.47135428  0.21913927  0.04396677     0.44000
C711        C  0.35873051  0.23246727  0.99475711     0.05200
O712        O  0.35757092  0.31728710  0.02658013    -0.57400
H713        H  0.43624767  0.32981168  0.05968680     0.18100
O714        O  0.50757780  0.18587829  0.04959136    -0.64200
H715        H  0.43184668  0.17547173  0.01494235     0.16600
C716        C  0.35447912  0.26143685  0.97121781     0.28800
C717        C  0.31835479  0.25177128  0.95035190    -0.25100
C718        C  0.28638094  0.21311586  0.95244105    -0.24300
C719        C  0.29308917  0.18255511  0.97504511     0.40300
C720        C  0.32889848  0.19241699  0.99598004    -0.26800
O721        O  0.38493458  0.29961409  0.96856903    -0.58700
H722        H  0.31370045  0.27578247  0.93321318     0.15900
O723        O  0.26358330  0.14371898  0.97739105    -0.60100
H724        H  0.33253696  0.16923380  0.01359821     0.14400
H725        H  0.49699423  0.17250388  0.06777690     0.46200
H726        H  0.41716747  0.28831574  0.95963948     0.41600
H727        H  0.28091091  0.12033813  0.96538838     0.45000
H728        H  0.37475718  0.34397353  0.01771649     0.36500
C729        C  0.81749046  0.31343747  0.98752427    -0.27700
C730        C  0.85642853  0.28170721  0.99401428     0.01900
C731        C  0.85749444  0.26150348  0.02072192     0.30000
C732        C  0.81891392  0.27213493  0.04031757    -0.19500
C733        C  0.77836951  0.30235618  0.03350395    -0.28900
C734        C  0.77854572  0.32374308  0.00692631     0.44000
C735        C  0.89658969  0.27061359  0.97303423     0.05200
O736        O  0.89660442  0.23186394  0.02793115    -0.57400
H737        H  0.81969410  0.25515994  0.06047184     0.18100
O738        O  0.74007886  0.35374774  0.99931419    -0.64200
H739        H  0.81675355  0.32958336  0.96711145     0.16600
C740        C  0.90006461  0.22653492  0.96082900     0.28800
C741        C  0.94146372  0.21554214  0.94306020    -0.25100
C742        C  0.98021097  0.24794563  0.93757655    -0.24300
C743        C  0.97458429  0.29308058  0.94850089     0.40300
C744        C  0.93301874  0.30400582  0.96604514    -0.26800
O745        O  0.86319851  0.19406892  0.96626115    -0.58700
H746        H  0.94460310  0.18079975  0.93484434     0.15900
O747        O  0.01069839  0.32627851  0.94329746    -0.60100
H748        H  0.93026401  0.33822319  0.97509753     0.14400
H749        H  0.75233239  0.38459739  0.00515448     0.46200
H750        H  0.88009609  0.17109882  0.97856955     0.41600
H751        H  0.99961519  0.34103348  0.92560441     0.45000
H752        H  0.88092166  0.20080354  0.02808045     0.36500
loop_ 
_geom_bond_atom_site_label_1 
_geom_bond_atom_site_label_2 
_geom_bond_distance 
_geom_bond_site_symmetry_2 
_ccdc_geom_bond_type 
O1          Cr19   2.026       .  S
O1            C9   1.271       .  A
O2          Cr19   1.939       .  S
O2            C3   1.249       .  A
C3            O4   1.274       .  A
C3          C637   1.482       .  S
O4          Cr20   2.057       .  S
O5          Cr20   1.960       .  S
O5            C6   1.257       .  A
C6            O7   1.271       .  A
C6          C718   1.476       .  S
O7          Cr21   2.030       .  S
O8          Cr21   1.960       .  S
O8            C9   1.258       .  A
C9          C694   1.491       .  S
O10         Cr19   1.950       .  S
O10          C18   1.254       .  A
O11         Cr19   2.032       .  S
O11          C12   1.272       .  A
C12          O13   1.257       .  A
C12         C742   1.484   1_455  S
O13         Cr20   1.959       .  S
O14         Cr20   2.045       .  S
O14          C15   1.276       .  A
C15          O16   1.261       .  A
C15         C670   1.494       .  S
O16         Cr21   1.969       .  S
O17         Cr21   2.037       .  S
O17          C18   1.273       .  A
C18         C622   1.478       .  S
Cr19         O22   1.755       .  S
Cr20         O22   1.758       .  S
Cr21         O22   1.765       .  S
O23         Cr41   2.000       .  S
O23          C31   1.265       .  A
O24         Cr41   2.013       .  S
O24          C25   1.265       .  A
C25          O26   1.256       .  A
C25         C550   1.473       .  S
O26         Cr42   1.974       .  S
O27         Cr42   2.022       .  S
O27          C28   1.267       .  A
C28          O29   1.255       .  A
C28         C646   1.479       .  S
O29         Cr43   1.967       .  S
O30         Cr43   2.001       .  S
O30          C31   1.264       .  A
C31         C565   1.496       .  S
O32         Cr41   2.011       .  S
O32          C40   1.266       .  A
O33         Cr41   1.992       .  S
O33          C34   1.265       .  A
C34          O35   1.268       .  A
C34         C589   1.492       .  S
O35         Cr42   2.000       .  S
O36         Cr42   1.980       .  S
O36          C37   1.263       .  A
C37          O38   1.270       .  A
C37         C517   1.482   1_655  S
O38         Cr43   2.004       .  S
O39         Cr43   1.993       .  S
O39          C40   1.262       .  A
C40         C493   1.499       .  S
Cr41         O44   1.775       .  S
Cr42         O44   1.771       .  S
Cr43         O44   1.776       .  S
O45         Cr63   1.998       .  S
O45          C53   1.263       .  A
O46         Cr63   2.010       .  S
O46          C47   1.264       .  A
C47          O48   1.257       .  A
C47         C526   1.475       .  S
O48         Cr64   1.976       .  S
O49         Cr64   2.017       .  S
O49          C50   1.265       .  A
C50          O51   1.254       .  A
C50         C469   1.469       .  S
O51         Cr65   1.974       .  S
O52         Cr65   2.000       .  S
O52          C53   1.264       .  A
C53         C661   1.491       .  S
O54         Cr63   2.001       .  S
O54          C62   1.266       .  A
O55         Cr63   1.996       .  S
O55          C56   1.265       .  A
C56          O57   1.269       .  A
C56         C685   1.487       .  S
O57         Cr64   2.000       .  S
O58         Cr64   1.989       .  S
O58          C59   1.265       .  A
C59          O60   1.269       .  A
C59         C541   1.478       .  S
O60         Cr65   2.001       .  S
O61         Cr65   1.991       .  S
O61          C62   1.262       .  A
C62         C454   1.491       .  S
Cr63         O66   1.772       .  S
Cr64         O66   1.768       .  S
Cr65         O66   1.777       .  S
O67         Cr85   2.022       .  S
O67          C75   1.269       .  A
O68         Cr85   1.956       .  S
O68          C69   1.253       .  A
C69          O70   1.271       .  A
C69         C478   1.472       .  S
O70         Cr86   2.047       .  S
O71         Cr86   1.960       .  S
O71          C72   1.258       .  A
C72          O73   1.273       .  A
C72         C733   1.484       .  S
O73         Cr87   2.034       .  S
O74         Cr87   1.965       .  S
O74          C75   1.257       .  A
C75         C598   1.486       .  S
O76         Cr85   1.955       .  S
O76          C84   1.255       .  A
O77         Cr85   2.024       .  S
O77          C78   1.270       .  A
C78          O79   1.259       .  A
C78         C709   1.483       .  S
O79         Cr86   1.964       .  S
O80         Cr86   2.041       .  S
O80          C81   1.273       .  A
C81          O82   1.262       .  A
C81         C574   1.498       .  S
O82         Cr87   1.975       .  S
O83         Cr87   2.045       .  S
O83          C84   1.274       .  A
C84         C421   1.488       .  S
Cr85         O88   1.763       .  S
Cr86         O88   1.764       .  S
Cr87         O88   1.766       .  S
O89        Cr107   2.024       .  S
O89          C97   1.270       .  A
O90        Cr107   1.950       .  S
O90          C91   1.252       .  A
C91          O92   1.271       .  A
C91         C349   1.471       .  S
O92        Cr108   2.037       .  S
O93        Cr108   1.948       .  S
O93          C94   1.254       .  A
C94          O95   1.271       .  A
C94         C373   1.475       .  S
O95        Cr109   2.030       .  S
O96        Cr109   1.958       .  S
O96          C97   1.256       .  A
C97         C301   1.488       .  S
O98        Cr107   1.955       .  S
O98         C106   1.257       .  A
O99        Cr107   2.032       .  S
O99         C100   1.272       .  A
C100        O101   1.259       .  A
C100        C397   1.492   1_655  S
O101       Cr108   1.966       .  S
O102       Cr108   2.040       .  S
O102        C103   1.274       .  A
C103        O104   1.258       .  A
C103        C334   1.489       .  S
O104       Cr109   1.963       .  S
O105       Cr109   2.031       .  S
O105        C106   1.272       .  A
C106        C613   1.475       .  S
Cr107       O110   1.758       .  S
Cr108       O110   1.759       .  S
Cr109       O110   1.765       .  S
O111       Cr129   1.972       .  S
O111        C119   1.257       .  A
O112       Cr129   2.048       .  S
O112        C113   1.275       .  A
C113        O114   1.256       .  A
C113        C238   1.488       .  S
O114       Cr130   1.958       .  S
O115       Cr130   2.049       .  S
O115        C116   1.271       .  A
C116        O117   1.249       .  A
C116        C358   1.483       .  S
O117       Cr131   1.940       .  S
O118       Cr131   2.019       .  S
O118        C119   1.269       .  A
C119        C262   1.485       .  S
O120       Cr129   2.050       .  S
O120        C128   1.277       .  A
O121       Cr129   1.965       .  S
O121        C122   1.259       .  A
C122        O123   1.274       .  A
C122        C277   1.485       .  S
O123       Cr130   2.037       .  S
O124       Cr130   1.966       .  S
O124        C125   1.259       .  A
C125        O126   1.272       .  A
C125        C205   1.490   1_455  S
O126       Cr131   2.036       .  S
O127       Cr131   1.960       .  S
O127        C128   1.258       .  A
C128        C502   1.497       .  S
Cr129       O132   1.766       .  S
Cr130       O132   1.764       .  S
Cr131       O132   1.757       .  S
O133       Cr151   1.972       .  S
O133        C141   1.259       .  A
O134       Cr151   2.043       .  S
O134        C135   1.273       .  A
C135        O136   1.255       .  A
C135        C214   1.487       .  S
O136       Cr152   1.958       .  S
O137       Cr152   2.046       .  S
O137        C138   1.272       .  A
C138        O139   1.251       .  A
C138        C181   1.482       .  S
O139       Cr153   1.940       .  S
O140       Cr153   2.020       .  S
O140        C141   1.269       .  A
C141        C325   1.486       .  S
O142       Cr151   2.045       .  S
O142        C150   1.276       .  A
O143       Cr151   1.962       .  S
O143        C144   1.259       .  A
C144        O145   1.274       .  A
C144        C310   1.482       .  S
O145       Cr152   2.037       .  S
O146       Cr152   1.971       .  S
O146        C147   1.259       .  A
C147        O148   1.271       .  A
C147        C229   1.492       .  S
O148       Cr153   2.032       .  S
O149       Cr153   1.955       .  S
O149        C150   1.257       .  A
C150        C445   1.493       .  S
Cr151       O154   1.766       .  S
Cr152       O154   1.764       .  S
Cr153       O154   1.753       .  S
O155       Cr173   2.017       .  S
O155        C163   1.268       .  A
O156       Cr173   1.951       .  S
O156        C157   1.252       .  A
C157        O158   1.271       .  A
C157        C190   1.472       .  S
O158       Cr174   2.041       .  S
O159       Cr174   1.959       .  S
O159        C160   1.256       .  A
C160        O161   1.274       .  A
C160        C406   1.482       .  S
O161       Cr175   2.042       .  S
O162       Cr175   1.969       .  S
O162        C163   1.259       .  A
C163        C286   1.487       .  S
O164       Cr173   1.957       .  S
O164        C172   1.257       .  A
O165       Cr173   2.025       .  S
O165        C166   1.270       .  A
C166        O167   1.256       .  A
C166        C382   1.482       .  S
O167       Cr174   1.960       .  S
O168       Cr174   2.036       .  S
O168        C169   1.274       .  A
C169        O170   1.261       .  A
C169        C253   1.496       .  S
O170       Cr175   1.972       .  S
O171       Cr175   2.048       .  S
O171        C172   1.276       .  A
C172        C430   1.489       .  S
Cr173       O176   1.761       .  S
Cr174       O176   1.760       .  S
Cr175       O176   1.763       .  S
C177        C178   1.409       .  A
C177        C182   1.406       .  A
C177        H187   1.083       .  S
C178        C183   1.480       .  S
C178        C179   1.402       .  A
C179        C180   1.389       .  A
C179        O184   1.372       .  S
C180        C181   1.409       .  A
C180        H185   1.082       .  S
C181        C182   1.409       .  A
C182        O186   1.371       .  S
C183        C188   1.406       .  A
C183        C192   1.406       .  A
O184        H200   0.992       .  S
O186        H197   0.992       .  S
C188        C189   1.398       .  A
C188        O193   1.372       .  S
C189        C190   1.406       .  A
C189        H194   1.084       .  S
C190        C191   1.407       .  A
C191        C192   1.399       .  A
C191        O195   1.371       .  S
C192        H196   1.084       .  S
O193        H198   0.992       .  S
O195        H199   0.991       .  S
C201        C202   1.405       .  A
C201        C206   1.403       .  A
C201        H211   1.083       .  S
C202        C207   1.489       .  S
C202        C203   1.408       .  A
C203        C204   1.401       .  A
C203        O208   1.372       .  S
C204        C205   1.408       .  A
C204        H209   1.083       .  S
C205        C206   1.413       .  A
C206        O210   1.371       .  S
C207        C212   1.411       .  A
C207        C216   1.402       .  A
O208        H224   0.992       .  S
O210        H221   0.992       .  S
C212        C213   1.405       .  A
C212        O217   1.372       .  S
C213        C214   1.405       .  A
C213        H218   1.084       .  S
C214        C215   1.415       .  A
C215        C216   1.401       .  A
C215        O219   1.373       .  S
C216        H220   1.084       .  S
O217        H222   0.992       .  S
O219        H223   0.992       .  S
C225        C226   1.404       .  A
C225        C230   1.403       .  A
C225        H235   1.083       .  S
C226        C231   1.493       .  S
C226        C227   1.410       .  A
C227        C228   1.404       .  A
C227        O232   1.372       .  S
C228        C229   1.408       .  A
C228        H233   1.083       .  S
C229        C230   1.414       .  A
C230        O234   1.371       .  S
C231        C236   1.413       .  A
C231        C240   1.402       .  A
O232        H248   0.992       .  S
O234        H245   0.992       .  S
C236        C237   1.407       .  A
C236        O241   1.372       .  S
C237        C238   1.405       .  A
C237        H242   1.084       .  S
C238        C239   1.414       .  A
C239        C240   1.402       .  A
C239        O243   1.373       .  S
C240        H244   1.083       .  S
O241        H246   0.992       .  S
O243        H247   0.992       .  S
C249        C250   1.403       .  A
C249        C254   1.403       .  A
C249        H259   1.084       .  S
C250        C255   1.493       .  S
C250        C251   1.410       .  A
C251        C252   1.407       .  A
C251        O256   1.373       .  S
C252        C253   1.408       .  A
C252        H257   1.083       .  S
C253        C254   1.416       .  A
C254        O258   1.372       .  S
C255        C260   1.411       .  A
C255        C264   1.405   1_545  A
O256        H272   0.992       .  S
O258        H269   0.992       .  S
C260        C261   1.404   1_545  A
C260        O265   1.371       .  S
C261        C262   1.405       .  A
C261        H266   1.083       .  S
C262        C263   1.411       .  A
C263        C264   1.404       .  A
C263        O267   1.371       .  S
C264        H268   1.083       .  S
O265        H270   0.991       .  S
O267        H271   0.992       .  S
C273        C274   1.404       .  A
C273        C278   1.401       .  A
C273        H283   1.084       .  S
C274        C279   1.489       .  S
C274        C275   1.410       .  A
C275        C276   1.403       .  A
C275        O280   1.372       .  S
C276        C277   1.406       .  A
C276        H281   1.084       .  S
C277        C278   1.412       .  A
C278        O282   1.372       .  S
C279        C284   1.408       .  A
C279        C288   1.406       .  A
O280        H296   0.992       .  S
O282        H293   0.992       .  S
C284        C285   1.399       .  A
C284        O289   1.372       .  S
C285        C286   1.407       .  A
C285        H290   1.083       .  S
C286        C287   1.413       .  A
C287        C288   1.405       .  A
C287        O291   1.371       .  S
C288        H292   1.083       .  S
O289        H294   0.992       .  S
O291        H295   0.992       .  S
C297        C298   1.405       .  A
C297        C302   1.405   1_565  A
C297        H307   1.083       .  S
C298        C303   1.483       .  S
C298        C299   1.405   1_565  A
C299        C300   1.398       .  A
C299        O304   1.372       .  S
C300        C301   1.409       .  A
C300        H305   1.083       .  S
C301        C302   1.412       .  A
C302        O306   1.371       .  S
C303        C308   1.408       .  A
C303        C312   1.402       .  A
O304        H320   0.992       .  S
O306        H317   0.992       .  S
C308        C309   1.403       .  A
C308        O313   1.372       .  S
C309        C310   1.406       .  A
C309        H314   1.084       .  S
C310        C311   1.413       .  A
C311        C312   1.399       .  A
C311        O315   1.372       .  S
C312        H316   1.084       .  S
O313        H318   0.992       .  S
O315        H319   0.992       .  S
C321        C322   1.404       .  A
C321        C326   1.402       .  A
C321        H331   1.084       .  S
C322        C327   1.488       .  S
C322        C323   1.408       .  A
C323        C324   1.404       .  A
C323        O328   1.372       .  S
C324        C325   1.407       .  A
C324        H329   1.084       .  S
C325        C326   1.411       .  A
C326        O330   1.371       .  S
C327        C332   1.407       .  A
C327        C336   1.405       .  A
O328        H344   0.992       .  S
O330        H341   0.991       .  S
C332        C333   1.403       .  A
C332        O337   1.371       .  S
C333        C334   1.409       .  A
C333        H338   1.084       .  S
C334        C335   1.411       .  A
C335        C336   1.403       .  A
C335        O339   1.371       .  S
C336        H340   1.084       .  S
O337        H342   0.992       .  S
O339        H343   0.992       .  S
C345        C346   1.406   1_455  A
C345        C350   1.399   1_455  A
C345        H355   1.083       .  S
C346        C351   1.481   1_645  S
C346        C347   1.407       .  A
C347        C348   1.396       .  A
C347        O352   1.372   1_545  S
C348        C349   1.406       .  A
C348        H353   1.084       .  S
C349        C350   1.407       .  A
C350        O354   1.372   1_655  S
C351        C356   1.402       .  A
C351        C360   1.409       .  A
O352        H368   0.992       .  S
O354        H365   0.992   1_455  S
C356        C357   1.390       .  A
C356        O361   1.373   1_565  S
C357        C358   1.410       .  A
C357        H362   1.083       .  S
C358        C359   1.408       .  A
C359        C360   1.406       .  A
C359        O363   1.371       .  S
C360        H364   1.083       .  S
O361        H366   0.992       .  S
O363        H367   0.992       .  S
C369        C370   1.398       .  A
C369        C374   1.394       .  A
C369        H379   1.084       .  S
C370        C375   1.474       .  S
C370        C371   1.408       .  A
C371        C372   1.402       .  A
C371        O376   1.373       .  S
C372        C373   1.403       .  A
C372        H377   1.083       .  S
C373        C374   1.414       .  A
C374        O378   1.372       .  S
C375        C380   1.406       .  A
C375        C384   1.399       .  A
O376        H392   0.992       .  S
O378        H389   0.992       .  S
C380        C381   1.400       .  A
C380        O385   1.373       .  S
C381        C382   1.406       .  A
C381        H386   1.083       .  S
C382        C383   1.415       .  A
C383        C384   1.397       .  A
C383        O387   1.371       .  S
C384        H388   1.084       .  S
O385        H390   0.992       .  S
O387        H391   0.992       .  S
C393        C394   1.401       .  A
C393        C398   1.401       .  A
C393        H403   1.084       .  S
C394        C399   1.485       .  S
C394        C395   1.407       .  A
C395        C396   1.404       .  A
C395        O400   1.372       .  S
C396        C397   1.408       .  A
C396        H401   1.083       .  S
C397        C398   1.416       .  A
C398        O402   1.371   1_455  S
C399        C404   1.410       .  A
C399        C408   1.402       .  A
O400        H416   0.992       .  S
O402        H413   0.992   1_655  S
C404        C405   1.406       .  A
C404        O409   1.372       .  S
C405        C406   1.405       .  A
C405        H410   1.084       .  S
C406        C407   1.412       .  A
C407        C408   1.399       .  A
C407        O411   1.372       .  S
C408        H412   1.084       .  S
O409        H414   0.992       .  S
O411        H415   0.992       .  S
C417        C418   1.403       .  A
C417        C422   1.400       .  A
C417        H427   1.083       .  S
C418        C423   1.496       .  S
C418        C419   1.415       .  A
C419        C420   1.406       .  A
C419        O424   1.371       .  S
C420        C421   1.404       .  A
C420        H425   1.083       .  S
C421        C422   1.415       .  A
C422        O426   1.372       .  S
C423        C428   1.415       .  A
C423        C432   1.403       .  A
O424        H440   0.992       .  S
O426        H437   0.992       .  S
C428        C429   1.406       .  A
C428        O433   1.372       .  S
C429        C430   1.404       .  A
C429        H434   1.083       .  S
C430        C431   1.415       .  A
C431        C432   1.401       .  A
C431        O435   1.372       .  S
C432        H436   1.083       .  S
O433        H438   0.992       .  S
O435        H439   0.992       .  S
C441        C442   1.400       .  A
C441        C446   1.397       .  A
C441        H451   1.084       .  S
C442        C447   1.492       .  S
C442        C443   1.413       .  A
C443        C444   1.407       .  A
C443        O448   1.371       .  S
C444        C445   1.407       .  A
C444        H449   1.083       .  S
C445        C446   1.418       .  A
C446        O450   1.372       .  S
C447        C452   1.414       .  A
C447        C456   1.401       .  A
O448        H464   0.992       .  S
O450        H461   0.992       .  S
C452        C453   1.404       .  A
C452        O457   1.371       .  S
C453        C454   1.405       .  A
C453        H458   1.083       .  S
C454        C455   1.417       .  A
C455        C456   1.399       .  A
C455        O459   1.372       .  S
C456        H460   1.083       .  S
O457        H462   0.992       .  S
O459        H463   0.992       .  S
C465        C466   1.407   1_556  A
C465        C470   1.404       .  A
C465        H475   1.083       .  S
C466        C471   1.490       .  S
C466        C467   1.410       .  A
C467        C468   1.399   1_554  A
C467        O472   1.372       .  S
C468        C469   1.403       .  A
C468        H473   1.084   1_556  S
C469        C470   1.408       .  A
C470        O474   1.372       .  S
C471        C476   1.407       .  A
C471        C480   1.410       .  A
O472        H488   0.992       .  S
O474        H485   0.991       .  S
C476        C477   1.399       .  A
C476        O481   1.372       .  S
C477        C478   1.404       .  A
C477        H482   1.084       .  S
C478        C479   1.404       .  A
C479        C480   1.405       .  A
C479        O483   1.371       .  S
C480        H484   1.083   1_554  S
O481        H486   0.992       .  S
O483        H487   0.992   1_554  S
C489        C490   1.409       .  A
C489        C494   1.411       .  A
C489        H499   1.083       .  S
C490        C495   1.496   1_655  S
C490        C491   1.406   1_655  A
C491        C492   1.400   1_455  A
C491        O496   1.372       .  S
C492        C493   1.410       .  A
C492        H497   1.083   1_655  S
C493        C494   1.413       .  A
C494        O498   1.371       .  S
C495        C500   1.407   1_455  A
C495        C504   1.409       .  A
O496        H512   0.992       .  S
O498        H509   0.992       .  S
C500        C501   1.402   1_655  A
C500        O505   1.372       .  S
C501        C502   1.411       .  A
C501        H506   1.083   1_455  S
C502        C503   1.411       .  A
C503        C504   1.409       .  A
C503        O507   1.371       .  S
C504        H508   1.083       .  S
O505        H510   0.992       .  S
O507        H511   0.992       .  S
C513        C514   1.410       .  A
C513        C518   1.403       .  A
C513        H523   1.083       .  S
C514        C519   1.491   1_554  S
C514        C515   1.407       .  A
C515        C516   1.400       .  A
C515        O520   1.372       .  S
C516        C517   1.409       .  A
C516        H521   1.084       .  S
C517        C518   1.406       .  A
C518        O522   1.371       .  S
C519        C524   1.410       .  A
C519        C528   1.410       .  A
O520        H536   0.992   1_554  S
O522        H533   0.991       .  S
C524        C525   1.395       .  A
C524        O529   1.373       .  S
C525        C526   1.402       .  A
C525        H530   1.084       .  S
C526        C527   1.407       .  A
C527        C528   1.408       .  A
C527        O531   1.371       .  S
C528        H532   1.083       .  S
O529        H534   0.992   1_556  S
O531        H535   0.992       .  S
C537        C538   1.402       .  A
C537        C542   1.402       .  A
C537        H547   1.083       .  S
C538        C543   1.490       .  S
C538        C539   1.413       .  A
C539        C540   1.404       .  A
C539        O544   1.371       .  S
C540        C541   1.402       .  A
C540        H545   1.084       .  S
C541        C542   1.412       .  A
C542        O546   1.372       .  S
C543        C548   1.411       .  A
C543        C552   1.404   1_556  A
O544        H560   0.992       .  S
O546        H557   0.992       .  S
C548        C549   1.409   1_556  A
C548        O553   1.371       .  S
C549        C550   1.405       .  A
C549        H554   1.084       .  S
C550        C551   1.407       .  A
C551        C552   1.398       .  A
C551        O555   1.372       .  S
C552        H556   1.084       .  S
O553        H558   0.992       .  S
O555        H559   0.992       .  S
C561        C562   1.409       .  A
C561        C566   1.409   1_545  A
C561        H571   1.083       .  S
C562        C567   1.500       .  S
C562        C563   1.410   1_545  A
C563        C564   1.403       .  A
C563        O568   1.373       .  S
C564        C565   1.408       .  A
C564        H569   1.083       .  S
C565        C566   1.413       .  A
C566        O570   1.371       .  S
C567        C572   1.412       .  A
C567        C576   1.407       .  A
O568        H584   0.992       .  S
O570        H581   0.992       .  S
C572        C573   1.404       .  A
C572        O577   1.371       .  S
C573        C574   1.408       .  A
C573        H578   1.083       .  S
C574        C575   1.415       .  A
C575        C576   1.408       .  A
C575        O579   1.371       .  S
C576        H580   1.083       .  S
O577        H582   0.992       .  S
O579        H583   0.992       .  S
C585        C586   1.406       .  A
C585        C590   1.405       .  A
C585        H595   1.084       .  S
C586        C591   1.487       .  S
C586        C587   1.405       .  A
C587        C588   1.402       .  A
C587        O592   1.373       .  S
C588        C589   1.411       .  A
C588        H593   1.083       .  S
C589        C590   1.411       .  A
C590        O594   1.371       .  S
C591        C596   1.410       .  A
C591        C600   1.402       .  A
O592        H608   0.992       .  S
O594        H605   0.992       .  S
C596        C597   1.405       .  A
C596        O601   1.372       .  S
C597        C598   1.405       .  A
C597        H602   1.084       .  S
C598        C599   1.414       .  A
C599        C600   1.400       .  A
C599        O603   1.372       .  S
C600        H604   1.084       .  S
O601        H606   0.992       .  S
O603        H607   0.992       .  S
C609        C610   1.400   1_455  A
C609        C614   1.396   1_455  A
C609        H619   1.084       .  S
C610        C615   1.481   1_655  S
C610        C611   1.411       .  A
C611        C612   1.402       .  A
C611        O616   1.372       .  S
C612        C613   1.403       .  A
C612        H617   1.084       .  S
C613        C614   1.411       .  A
C614        O618   1.372   1_655  S
C615        C620   1.411       .  A
C615        C624   1.400   1_455  A
O616        H632   0.992       .  S
O618        H629   0.992   1_455  S
C620        C621   1.401       .  A
C620        O625   1.372       .  S
C621        C622   1.403       .  A
C621        H626   1.083       .  S
C622        C623   1.414       .  A
C623        C624   1.397   1_455  A
C623        O627   1.372       .  S
C624        H628   1.084       .  S
O625        H630   0.992       .  S
O627        H631   0.992       .  S
C633        C634   1.404       .  A
C633        C638   1.393       .  A
C633        H643   1.084   1_545  S
C634        C639   1.496   1_445  S
C634        C635   1.416       .  A
C635        C636   1.411       .  A
C635        O640   1.372   1_456  S
C636        C637   1.404       .  A
C636        H641   1.084       .  S
C637        C638   1.412       .  A
C638        O642   1.373       .  S
C639        C644   1.416       .  A
C639        C648   1.403   1_655  A
O640        H656   0.992   1_554  S
O642        H653   0.992       .  S
C644        C645   1.410       .  A
C644        O649   1.370       .  S
C645        C646   1.404   1_556  A
C645        H650   1.083   1_556  S
C646        C647   1.410   1_655  A
C647        C648   1.393   1_554  A
C647        O651   1.374       .  S
C648        H652   1.083       .  S
O649        H654   0.992       .  S
O651        H655   0.992       .  S
C657        C658   1.403       .  A
C657        C662   1.402       .  A
C657        H667   1.084       .  S
C658        C663   1.494       .  S
C658        C659   1.412       .  A
C659        C660   1.408       .  A
C659        O664   1.372       .  S
C660        C661   1.405       .  A
C660        H665   1.083       .  S
C661        C662   1.415       .  A
C662        O666   1.372       .  S
C663        C668   1.410       .  A
C663        C672   1.404       .  A
O664        H680   0.992       .  S
O666        H677   0.992       .  S
C668        C669   1.405       .  A
C668        O673   1.371       .  S
C669        C670   1.408       .  A
C669        H674   1.083       .  S
C670        C671   1.415       .  A
C671        C672   1.403       .  A
C671        O675   1.372       .  S
C672        H676   1.084       .  S
O673        H678   0.992       .  S
O675        H679   0.992       .  S
C681        C682   1.401       .  A
C681        C686   1.402       .  A
C681        H691   1.084       .  S
C682        C687   1.487       .  S
C682        C683   1.411       .  A
C683        C684   1.405       .  A
C683        O688   1.372       .  S
C684        C685   1.404       .  A
C684        H689   1.083       .  S
C685        C686   1.415       .  A
C686        O690   1.372       .  S
C687        C692   1.404   1_565  A
C687        C696   1.406       .  A
O688        H704   0.992       .  S
O690        H701   0.992       .  S
C692        C693   1.398       .  A
C692        O697   1.371       .  S
C693        C694   1.409       .  A
C693        H698   1.083       .  S
C694        C695   1.413       .  A
C695        C696   1.408   1_545  A
C695        O699   1.371       .  S
C696        H700   1.083       .  S
O697        H702   0.992       .  S
O699        H703   0.992       .  S
C705        C706   1.402       .  A
C705        C710   1.397       .  A
C705        H715   1.084       .  S
C706        C711   1.482   1_554  S
C706        C707   1.409       .  A
C707        C708   1.402       .  A
C707        O712   1.374       .  S
C708        C709   1.407       .  A
C708        H713   1.083       .  S
C709        C710   1.413       .  A
C710        O714   1.371       .  S
C711        C716   1.411       .  A
C711        C720   1.402       .  A
O712        H728   0.992       .  S
O714        H725   0.992       .  S
C716        C717   1.399       .  A
C716        O721   1.371       .  S
C717        C718   1.404       .  A
C717        H722   1.084       .  S
C718        C719   1.411       .  A
C719        C720   1.398       .  A
C719        O723   1.372       .  S
C720        H724   1.084   1_556  S
O721        H726   0.992       .  S
O723        H727   0.992       .  S
C729        C730   1.400       .  A
C729        C734   1.400   1_556  A
C729        H739   1.084       .  S
C730        C735   1.477       .  S
C730        C731   1.407   1_556  A
C731        C732   1.401       .  A
C731        O736   1.372       .  S
C732        C733   1.406       .  A
C732        H737   1.083       .  S
C733        C734   1.415       .  A
C734        O738   1.372   1_554  S
C735        C740   1.407       .  A
C735        C744   1.399       .  A
O736        H752   0.992       .  S
O738        H749   0.992   1_556  S
C740        C741   1.402       .  A
C740        O745   1.372       .  S
C741        C742   1.406       .  A
C741        H746   1.083       .  S
C742        C743   1.415       .  A
C743        C744   1.399       .  A
C743        O747   1.372   1_655  S
C744        H748   1.084       .  S
O745        H750   0.992       .  S
O747        H751   0.992   1_455  S
