geometry optimzed in LAMMPS
_audit_creation_date              2020-12-01 
_audit_creation_method            'lammps2cif' 
_symmetry_space_group_name_H-M    'P1' 
_symmetry_Int_Tables_number       1 
_symmetry_cell_setting            triclinic 
loop_ 
_symmetry_equiv_pos_as_xyz 
  x,y,z 
_cell_length_a                    44.51926957 
_cell_length_b                    29.090135668648337 
_cell_length_c                    55.977659886554946 
_cell_angle_alpha                 90.02859822092354 
_cell_angle_beta                  90.34657277426126 
_cell_angle_gamma                 90.09052527294257 
loop_ 
_atom_site_label 
_atom_site_type_symbol 
_atom_site_fract_x 
_atom_site_fract_y 
_atom_site_fract_z 
_atom_site_charge 
O1          O  0.71113336  0.30640282  0.64327877    -0.82300
C2          C  0.64508334  0.44156720  0.59411630     0.97000
O3          O  0.63548973  0.40106339  0.59741044    -0.71400
O4          O  0.67907866  0.34946771  0.58325644    -0.75000
Al5        Al  0.65628809  0.34944530  0.61132259     1.49000
C6          C  0.70552292  0.33540583  0.58096935     0.92300
O7          O  0.73702732  0.42081250  0.61689639    -0.81200
O8          O  0.68214945  0.41548469  0.67248754    -0.74800
Al9        Al  0.72123127  0.36467595  0.62997851     1.90100
O10         O  0.70904904  0.46703807  0.63807373    -0.73900
O11         O  0.63030585  0.41819532  0.64632406    -0.73700
O12         O  0.66175573  0.46038614  0.60973146    -0.79400
O13         O  0.62931056  0.34520430  0.63751519    -0.77600
O14         O  0.68311119  0.38284975  0.62749396    -1.13700
O15         O  0.67219855  0.29084795  0.62054490    -0.72900
C16         C  0.69346963  0.27753995  0.63387675     0.97800
C17         C  0.73217124  0.45999030  0.62580739     0.94200
Al18       Al  0.67156682  0.43576634  0.64063727     1.55600
O19         O  0.72374198  0.33784215  0.59838726    -0.77500
C20         C  0.61655900  0.38009966  0.64608782     0.98400
C21         C  0.70847343  0.40193914  0.67807246     0.93200
O22         O  0.72607053  0.38669444  0.66217066    -0.82900
O23         O  0.78715676  0.16044198  0.34674354    -0.82300
C24         C  0.84565530  0.10007463  0.43080284     0.97000
O25         O  0.84895960  0.08113236  0.41050329    -0.71400
O26         O  0.79738766  0.05908515  0.39098436    -0.75000
Al27       Al  0.82998202  0.09412352  0.37968216     1.49000
C28         C  0.77009480  0.06384789  0.38571235     0.92300
O29         O  0.76331592  0.17014034  0.41177019    -0.81200
O30         O  0.83497511  0.23373904  0.38494303    -0.74800
Al31       Al  0.77746567  0.16411808  0.37951476     1.90100
O32         O  0.80175814  0.21123666  0.42394751    -0.73900
O33         O  0.87424018  0.16834538  0.39653796    -0.73700
O34         O  0.83697607  0.14120085  0.43232824    -0.79400
O35         O  0.86571422  0.12125492  0.36693351    -0.77600
O36         O  0.81426977  0.14768332  0.38880550    -1.13700
O37         O  0.81275009  0.09579590  0.34758899    -0.72900
C38         C  0.79730818  0.12543870  0.33628308     0.97800
C39         C  0.77487026  0.19846199  0.42630446     0.94200
Al40       Al  0.83530907  0.18526985  0.40772308     1.55600
O41         O  0.76036094  0.10264190  0.37899825    -0.77500
C42         C  0.88378284  0.14525256  0.37912171     0.98400
C43         C  0.81069306  0.25228273  0.37818263     0.93200
O44         O  0.78652834  0.22908015  0.37751027    -0.82900
O45         O  0.29143757  0.35932130  0.66070407    -0.82300
C46         C  0.35680350  0.42165104  0.58208630     0.97000
O47         O  0.35822648  0.44162788  0.60224729    -0.71400
O48         O  0.30621756  0.46273714  0.61993572    -0.75000
Al49       Al  0.33814748  0.42676206  0.63213072     1.49000
C50         C  0.27854271  0.45708630  0.62286316     0.92300
O51         O  0.27470413  0.35491779  0.59468041    -0.81200
O52         O  0.34108447  0.28545911  0.62619354    -0.74800
Al53       Al  0.28509554  0.35767842  0.62766167     1.90100
O54         O  0.31324258  0.31261043  0.58455587    -0.73900
O55         O  0.38279179  0.34906716  0.61875329    -0.73700
O56         O  0.35060807  0.37958933  0.58048866    -0.79400
O57         O  0.37357166  0.40020938  0.64603152    -0.77600
O58         O  0.32301383  0.37339729  0.62157041    -1.13700
O59         O  0.31929974  0.42189212  0.66352847    -0.72900
C60         C  0.30238483  0.39168463  0.67300119     0.97800
C61         C  0.28749213  0.32852665  0.58002527     0.94200
Al62       Al  0.34528646  0.33518026  0.60413718     1.55600
O63         O  0.26841328  0.41813228  0.62827317    -0.77500
C64         C  0.39156342  0.37262815  0.63631941     0.98400
C65         C  0.31567180  0.26811263  0.63075056     0.93200
O66         O  0.29236557  0.29267164  0.62899025    -0.82900
O67         O  0.20058740  0.20600113  0.37528641    -0.82300
C68         C  0.13623002  0.06817063  0.42309821     0.97000
O69         O  0.12673924  0.10885384  0.42046349    -0.71400
O70         O  0.17130975  0.15970067  0.43577772    -0.75000
Al71       Al  0.14750350  0.16125963  0.40763006     1.49000
C72         C  0.19817155  0.17298529  0.43711719     0.92300
O73         O  0.22817231  0.09132023  0.39984262    -0.81200
O74         O  0.17155101  0.09768258  0.34532695    -0.74800
Al75       Al  0.21159054  0.14751647  0.38766410     1.90100
O76         O  0.19931362  0.04531347  0.37895366    -0.73900
O77         O  0.12059375  0.09464333  0.37151553    -0.73700
O78         O  0.15283620  0.05066553  0.40731460    -0.79400
O79         O  0.12016516  0.16695291  0.38155490    -0.77600
O80         O  0.17375366  0.12878260  0.39058615    -1.13700
O81         O  0.16311026  0.22061656  0.39921706    -0.72900
C82         C  0.18329758  0.23450078  0.38516832     0.97800
C83         C  0.22297950  0.05235424  0.39080022     0.94200
Al84       Al  0.16184432  0.07645981  0.37688477     1.55600
O85         O  0.21503960  0.17234732  0.41908901    -0.77500
C86         C  0.10725898  0.13295265  0.37193419     0.98400
C87         C  0.19745648  0.11224017  0.33959092     0.93200
O88         O  0.21543701  0.12740023  0.35534825    -0.82900
O89         O  0.21720850  0.79114462  0.62876532    -0.82300
C90         C  0.15336130  0.93043732  0.58557037     0.97000
O91         O  0.15771372  0.88801550  0.58326385    -0.71400
O92         O  0.19359975  0.81874966  0.58401807    -0.75000
Al93       Al  0.16462118  0.84170801  0.60575557     1.49000
C94         C  0.22059331  0.82891326  0.57978669     0.92300
O95         O  0.24820132  0.91239657  0.62881160    -0.81200
O96         O  0.20049170  0.92311417  0.66446617    -0.74800
Al97       Al  0.22775632  0.85465987  0.62787385     1.90100
O98         O  0.21328458  0.96251300  0.62067550    -0.73900
O99         O  0.14399383  0.90972294  0.64920391    -0.73700
O100        O  0.15794741  0.95008352  0.60548304    -0.79400
O101        O  0.12998897  0.85753650  0.62329352    -0.77600
O102        O  0.19052605  0.87602517  0.62269237    -1.13700
O103        O  0.16832376  0.78939810  0.62594053    -0.72900
C104        C  0.19286230  0.76910082  0.62959381     0.97800
C105        C  0.24049143  0.95280871  0.62392373     0.94200
Al106      Al  0.17976117  0.93126228  0.63402347     1.55600
O107        O  0.23626983  0.85123180  0.59469183    -0.77500
C108        C  0.12439098  0.88255381  0.64102149     0.98400
C109        C  0.21615681  0.89082214  0.67340333     0.93200
O110        O  0.22322976  0.85601694  0.66121147    -0.82900
O111        O  0.28092610  0.62873308  0.34918278    -0.82300
C112        C  0.35817512  0.57300358  0.41949046     0.97000
O113        O  0.34370467  0.55439089  0.40253535    -0.71400
O114        O  0.29945146  0.54633856  0.37191550    -0.75000
Al115      Al  0.33544960  0.58135051  0.37194418     1.49000
C116        C  0.27548504  0.54931360  0.38358674     0.92300
O117        O  0.27614966  0.66859443  0.41395292    -0.81200
O118        O  0.32787784  0.72321717  0.39594326    -0.74800
Al119      Al  0.28220018  0.64648692  0.38208896     1.90100
O120        O  0.32017719  0.66053417  0.43115066    -0.73900
O121        O  0.37344038  0.67495466  0.37967957    -0.73700
O122        O  0.36676833  0.61430223  0.41753230    -0.79400
O123        O  0.37633135  0.60336643  0.36869447    -0.77600
O124        O  0.32075223  0.63158006  0.38594126    -1.13700
O125        O  0.32641056  0.60393492  0.34031360    -0.72900
C126        C  0.30027769  0.61684991  0.33384909     0.97800
C127        C  0.29287493  0.67118129  0.43218663     0.94200
Al128      Al  0.34497892  0.66537909  0.40432789     1.55600
O129        O  0.26780136  0.58736317  0.39254848    -0.77500
C130        C  0.38838775  0.64260553  0.37078316     0.98400
C131        C  0.30729952  0.73670549  0.38203282     0.93200
O132        O  0.29088471  0.70751045  0.37148890    -0.82900
O133        O  0.80038104  0.86462552  0.66223735    -0.82300
C134        C  0.86817715  0.92625672  0.58420684     0.97000
O135        O  0.86873893  0.94552982  0.60460011    -0.71400
O136        O  0.81753973  0.96906742  0.62318367    -0.75000
Al137      Al  0.84859950  0.93047356  0.63437152     1.49000
C138        C  0.78983740  0.96539830  0.62663716     0.92300
O139        O  0.78339550  0.86322010  0.59592836    -0.81200
O140        O  0.84811864  0.78883518  0.62673780    -0.74800
Al141      Al  0.79386194  0.86468650  0.62913085     1.90100
O142        O  0.82141264  0.81933437  0.58601042    -0.73900
O143        O  0.89170009  0.85144721  0.61999202    -0.73700
O144        O  0.86015762  0.88494350  0.58225280    -0.79400
O145        O  0.88338627  0.90213812  0.64764867    -0.77600
O146        O  0.83220322  0.87841003  0.62322802    -1.13700
O147        O  0.83035060  0.92452098  0.66569796    -0.72900
C148        C  0.81277259  0.89514085  0.67498502     0.97800
C149        C  0.79562395  0.83513848  0.58178285     0.94200
Al150      Al  0.85369834  0.83971246  0.60544685     1.55600
O151        O  0.77863105  0.92636398  0.63041968    -0.77500
C152        C  0.90106196  0.87510130  0.63734069     0.98400
C153        C  0.82211684  0.77293864  0.63083501     0.93200
O154        O  0.79947320  0.79913369  0.62991322    -0.82900
O155        O  0.70731804  0.72732601  0.38107437    -0.82300
C156        C  0.64834910  0.59520961  0.43210630     0.97000
O157        O  0.65338756  0.63778801  0.43321608    -0.71400
O158        O  0.68755604  0.70834810  0.42684575    -0.75000
Al159      Al  0.65653235  0.68159145  0.40838159     1.49000
C160        C  0.71419721  0.69660810  0.43122231     0.92300
O161        O  0.73628044  0.60368825  0.38504343    -0.81200
O162        O  0.68552802  0.59277244  0.35050447    -0.74800
Al163      Al  0.71737016  0.66327229  0.38412047     1.90100
O164        O  0.69994414  0.55721510  0.39473838    -0.73900
O165        O  0.63071637  0.61206648  0.36753849    -0.73700
O166        O  0.64730112  0.57477120  0.41206846    -0.79400
O167        O  0.61923725  0.66360149  0.39434800    -0.77600
O168        O  0.68013889  0.64464779  0.39121639    -1.13700
O169        O  0.65846624  0.73061310  0.38565243    -0.72900
C170        C  0.68302765  0.74987793  0.38028595     0.97800
C171        C  0.72734744  0.56428871  0.39119581     0.94200
Al172      Al  0.66687280  0.58934641  0.38190396     1.55600
O173        O  0.72831753  0.67086401  0.41699411    -0.77500
C174        C  0.61181228  0.63846922  0.37701723     0.98400
C175        C  0.70174008  0.62242113  0.33994117     0.93200
O176        O  0.71079467  0.65780985  0.35089996    -0.82900
O177        O  0.79958320  0.29120023  0.88354685    -0.82300
C178        C  0.86667878  0.41875337  0.93174740     0.97000
O179        O  0.86066211  0.37647460  0.93280250    -0.71400
O180        O  0.82403224  0.30743972  0.92812825    -0.75000
Al181      Al  0.85371907  0.33377749  0.90797423     1.49000
C182        C  0.79785062  0.31951479  0.93379896     0.92300
O183        O  0.77302541  0.41460455  0.88919189    -0.81200
O184        O  0.82025899  0.42583253  0.85270545    -0.74800
Al185      Al  0.79101428  0.35499681  0.88729740     1.90100
O186        O  0.81033230  0.45998416  0.89830946    -0.73900
O187        O  0.87622258  0.40473231  0.86663839    -0.73700
O188        O  0.86452823  0.44009028  0.91205173    -0.79400
O189        O  0.88944059  0.35107894  0.89185596    -0.77600
O190        O  0.82898901  0.37224157  0.89258892    -1.13700
O191        O  0.84866093  0.28578759  0.88492901    -0.72900
C192        C  0.82324657  0.26807679  0.88058322     0.97800
C193        C  0.78266821  0.45344828  0.89551868     0.94200
Al194      Al  0.84180572  0.42760431  0.88316126     1.55600
O195        O  0.78319498  0.34728157  0.92081638    -0.77500
C196        C  0.89563549  0.37720166  0.87467484     0.98400
C197        C  0.80393561  0.39567364  0.84248215     0.93200
O198        O  0.79486589  0.36070180  0.85371241    -0.82900
O199        O  0.70685059  0.14596174  0.16420398    -0.82300
C200        C  0.64675138  0.08455587  0.08187534     0.97000
O201        O  0.64286967  0.06562503  0.10209636    -0.71400
O202        O  0.69399475  0.04414299  0.12141782    -0.75000
Al203      Al  0.66192716  0.07968724  0.13281789     1.49000
C204        C  0.72164507  0.04899938  0.12498086     0.92300
O205        O  0.72761834  0.15469103  0.09873611    -0.81200
O206        O  0.65770060  0.21995934  0.12680509    -0.74800
Al207      Al  0.71498137  0.14917954  0.13125776     1.90100
O208        O  0.68883757  0.19550658  0.08736194    -0.73900
O209        O  0.61752704  0.15424429  0.11646113    -0.73700
O210        O  0.65386734  0.12628243  0.08032041    -0.79400
O211        O  0.62635963  0.10674789  0.14574318    -0.77600
O212        O  0.67761492  0.13307774  0.12312684    -1.13700
O213        O  0.67952337  0.08281287  0.16484110    -0.72900
C214        C  0.69590520  0.11241708  0.17543875     0.97800
C215        C  0.71529108  0.18183364  0.08405538     0.94200
Al216      Al  0.65610026  0.17058503  0.10449085     1.55600
O217        O  0.73196125  0.08771134  0.13128818    -0.77500
C218        C  0.60822095  0.13101731  0.13388465     0.98400
C219        C  0.68258979  0.23809290  0.13258502     0.93200
O220        O  0.70639795  0.21416074  0.13318272    -0.82900
O221        O  0.22675712  0.38647581  0.85346162    -0.82300
C222        C  0.14721174  0.43810717  0.92131997     0.97000
O223        O  0.16114007  0.45749978  0.90439878    -0.71400
O224        O  0.20629918  0.46765550  0.87462376    -0.75000
Al225      Al  0.17079434  0.43105972  0.87397377     1.49000
C226        C  0.22976927  0.46614008  0.88717425     0.92300
O227        O  0.23028738  0.34817542  0.91805856    -0.81200
O228        O  0.17884083  0.28872745  0.89644642    -0.74800
Al229      Al  0.22472801  0.36882435  0.88613042     1.90100
O230        O  0.18526592  0.34830783  0.93331006    -0.73900
O231        O  0.13275403  0.33736926  0.88089419    -0.73700
O232        O  0.13959337  0.39629248  0.91973382    -0.79400
O233        O  0.13029369  0.40882956  0.86969757    -0.77600
O234        O  0.18568232  0.38131089  0.88854924    -1.13700
O235        O  0.18129508  0.40811855  0.84246757    -0.72900
C236        C  0.20795854  0.39585300  0.83713887     0.97800
C237        C  0.21307695  0.34353106  0.93566349     0.94200
Al238      Al  0.16130140  0.34579425  0.90587841     1.55600
O239        O  0.23741920  0.42871733  0.89685356    -0.77500
C240        C  0.11803713  0.36996610  0.87191173     0.98400
C241        C  0.20060895  0.27694091  0.88350545     0.93200
O242        O  0.21820491  0.30719796  0.87536376    -0.82900
O243        O  0.28723642  0.22000884  0.13359389    -0.82300
C244        C  0.35685733  0.09543439  0.08785693     0.97000
O245        O  0.35055823  0.13759662  0.08697805    -0.71400
O246        O  0.31325242  0.20491210  0.09064307    -0.75000
Al247      Al  0.34278843  0.17983099  0.11125927     1.49000
C248        C  0.28754743  0.19142413  0.08425242     0.92300
O249        O  0.26325635  0.09563264  0.12739813    -0.81200
O250        O  0.30962534  0.08873619  0.16679897    -0.74800
Al251      Al  0.27999467  0.15583958  0.12983651     1.90100
O252        O  0.30196014  0.05174688  0.12133907    -0.73900
O253        O  0.36592602  0.11138215  0.15339013    -0.73700
O254        O  0.35536065  0.07383557  0.10760446    -0.79400
O255        O  0.37850389  0.16378482  0.12759546    -0.77600
O256        O  0.31844290  0.14048521  0.12613898    -1.13700
O257        O  0.33637559  0.22748221  0.13406013    -0.72900
C258        C  0.31043541  0.24418278  0.13706812     0.97800
C259        C  0.27410376  0.05721615  0.12197273     0.94200
Al260      Al  0.33216018  0.08634256  0.13654092     1.55600
O261        O  0.27336263  0.16220509  0.09642198    -0.77500
C262        C  0.38531920  0.13813168  0.14482696     0.98400
C263        C  0.29093936  0.11759511  0.17533209     0.93200
O264        O  0.28243086  0.15143728  0.16307593    -0.82900
O265        O  0.30481220  0.79312803  0.88024164    -0.82300
C266        C  0.36069290  0.93083770  0.92940400     0.97000
O267        O  0.35366355  0.88930517  0.93223110    -0.71400
O268        O  0.32004492  0.81712510  0.92660684    -0.75000
Al269      Al  0.35292797  0.84214926  0.90932276     1.49000
C270        C  0.29274574  0.82780174  0.92802737     0.92300
O271        O  0.27601777  0.91772157  0.87884374    -0.81200
O272        O  0.32911361  0.92227917  0.84602558    -0.74800
Al273      Al  0.29443700  0.85739204  0.88061832     1.90100
O274        O  0.31274383  0.96444628  0.88801957    -0.73900
O275        O  0.38212566  0.90227824  0.86640657    -0.73700
O276        O  0.36427977  0.94749274  0.90860271    -0.79400
O277        O  0.39167399  0.85891522  0.89723599    -0.77600
O278        O  0.33110567  0.87634789  0.88914988    -1.13700
O279        O  0.35313332  0.79020167  0.88853544    -0.72900
C280        C  0.32902029  0.77048338  0.88218906     0.97800
C281        C  0.28529860  0.95758698  0.88404412     0.94200
Al282      Al  0.34592926  0.92932225  0.87812304     1.55600
O283        O  0.28066172  0.85369990  0.91271076    -0.77500
C284        C  0.40052181  0.87903659  0.87858675     0.98400
C285        C  0.31372995  0.89084316  0.83595251     0.93200
O286        O  0.30330132  0.85805333  0.84795617    -0.82900
O287        O  0.21261237  0.65670682  0.15574502    -0.82300
C288        C  0.13888685  0.59204388  0.08090718     0.97000
O289        O  0.14023663  0.57286020  0.10135585    -0.71400
O290        O  0.19351936  0.55032161  0.11721154    -0.75000
Al291      Al  0.16334192  0.58834708  0.13023923     1.49000
C292        C  0.22120375  0.55456175  0.12090353     0.92300
O293        O  0.22462437  0.65387639  0.08893494    -0.81200
O294        O  0.16223561  0.72835921  0.12221276    -0.74800
Al295      Al  0.21689839  0.65473446  0.12251632     1.90100
O296        O  0.18622648  0.69796258  0.08020711    -0.73900
O297        O  0.11903960  0.66679795  0.11742447    -0.73700
O298        O  0.14697124  0.63313817  0.07838920    -0.79400
O299        O  0.12969722  0.61733317  0.14525814    -0.77600
O300        O  0.17837499  0.64019070  0.11818964    -1.13700
O301        O  0.18540420  0.59437248  0.16082942    -0.72900
C302        C  0.20354882  0.62461994  0.16907981     0.97800
C303        C  0.21108125  0.68031890  0.07455750     0.94200
Al304      Al  0.15541193  0.67819455  0.10116556     1.55600
O305        O  0.23235402  0.59368801  0.12445068    -0.77500
C306        C  0.11130958  0.64470947  0.13568633     0.98400
C307        C  0.18820857  0.74497329  0.12512260     0.93200
O308        O  0.21119419  0.72004247  0.12258428    -0.82900
O309        O  0.72624749  0.85499487  0.85108306    -0.82300
C310        C  0.65169914  0.92492466  0.92354841     0.97000
O311        O  0.65445290  0.94302576  0.90307649    -0.71400
O312        O  0.70894692  0.96134711  0.88984662    -0.75000
Al313      Al  0.67821707  0.92571458  0.87563161     1.49000
C314        C  0.73675158  0.95550403  0.88792210     0.92300
O315        O  0.73694415  0.85393170  0.91794716    -0.81200
O316        O  0.67241572  0.78455561  0.88489368    -0.74800
Al317      Al  0.72949258  0.85551622  0.88451116     1.90100
O318        O  0.69592816  0.81573136  0.92701574    -0.73900
O319        O  0.63081557  0.85072623  0.88727901    -0.73700
O320        O  0.65868523  0.88358522  0.92699643    -0.79400
O321        O  0.64441355  0.89912674  0.85957560    -0.77600
O322        O  0.69125472  0.87272654  0.88815264    -1.13700
O323        O  0.70072244  0.91902797  0.84609495    -0.72900
C324        C  0.71805156  0.88805556  0.83803332     0.97800
C325        C  0.72216122  0.82894443  0.93206789     0.94200
Al326      Al  0.66647478  0.83687952  0.90491803     1.55600
O327        O  0.74697958  0.91590178  0.88401756    -0.77500
C328        C  0.62452463  0.87448863  0.86912634     0.98400
C329        C  0.69805423  0.76660350  0.88229055     0.93200
O330        O  0.72150899  0.79091571  0.88384960    -0.82900
O331        O  0.79194141  0.70226608  0.14236875    -0.82300
C332        C  0.85994138  0.57164982  0.09244998     0.97000
O333        O  0.86846890  0.61270734  0.09539523    -0.71400
O334        O  0.82271280  0.66139677  0.08185553    -0.75000
Al335      Al  0.84654358  0.66262203  0.10963052     1.49000
C336        C  0.79533647  0.67134858  0.07996647     0.92300
O337        O  0.76736314  0.58648305  0.11609805    -0.81200
O338        O  0.82339029  0.59317469  0.17108299    -0.74800
Al339      Al  0.78250752  0.64333940  0.12913769     1.90100
O340        O  0.79786926  0.54118280  0.13565538    -0.73900
O341        O  0.87453340  0.59550291  0.14504171    -0.73700
O342        O  0.84422388  0.55199968  0.10815202    -0.79400
O343        O  0.87441637  0.66823579  0.13544775    -0.77600
O344        O  0.82099953  0.62740541  0.12612641    -1.13700
O345        O  0.82955611  0.72008613  0.11924564    -0.72900
C346        C  0.80898753  0.73228334  0.13328456     0.97800
C347        C  0.77437491  0.54684874  0.12342128     0.94200
Al348      Al  0.83413585  0.57506770  0.13898581     1.55600
O349        O  0.77821558  0.66912720  0.09781853    -0.77500
C350        C  0.88756969  0.63410400  0.14460264     0.98400
C351        C  0.79685910  0.60496721  0.17672835     0.93200
O352        O  0.77906646  0.62107645  0.16112898    -0.82900
C353        C  0.74484297  0.70987921  0.02875197    -0.11900
C354        C  0.76473157  0.73851872  0.01631130     0.14600
C355        C  0.79466366  0.74299392  0.02426938     0.01500
C356        C  0.80420928  0.71845275  0.04426548    -0.16300
C357        C  0.78434291  0.69034991  0.05711498    -0.11100
C358        C  0.75438978  0.68543309  0.04897072     0.08300
C359        C  0.75420662  0.76212445  0.99455779     0.09300
S360        S  0.82163988  0.78013450  0.00997284    -0.25400
H361        H  0.82712929  0.72308849  0.05046559     0.19600
S362        S  0.72777185  0.64739260  0.06294708    -0.31100
H363        H  0.72193798  0.70595254  0.02240301     0.09900
C364        C  0.76328021  0.74726305  0.97176350     0.03100
C365        C  0.75425637  0.77220753  0.95160874    -0.13400
C366        C  0.73594426  0.81106706  0.95385802    -0.09100
C367        C  0.72660956  0.82567624  0.97664276     0.06500
C368        C  0.73587202  0.80102728  0.99681643    -0.14100
S369        S  0.78516877  0.69541604  0.96831166    -0.31100
H370        H  0.76031450  0.76033027  0.93394061     0.10800
S371        S  0.70246511  0.87473404  0.98098025    -0.28200
H372        H  0.72895454  0.81234546  0.01438591     0.08000
H373        H  0.74912104  0.61364246  0.06897030     0.26400
H374        H  0.78521587  0.69493077  0.94318147     0.21200
H375        H  0.71052651  0.89804565  0.95996482     0.26500
H376        H  0.80095167  0.81365793  0.00244557     0.15400
C377        C  0.03612739  0.62497995  0.16752682    -0.11900
C378        C  0.01643208  0.64850710  0.15209561     0.14600
C379        C  0.02863319  0.67496779  0.13339864     0.01500
C380        C  0.05969798  0.67570077  0.12990591    -0.16300
C381        C  0.07954949  0.64953469  0.14416831    -0.11100
C382        C  0.06739363  0.62546081  0.16394217     0.08300
C383        C  0.98332614  0.64282779  0.15470996     0.09300
S384        S  0.00572318  0.70651155  0.11235814    -0.25400
H385        H  0.06813083  0.69513522  0.11486342     0.19600
S386        S  0.09014367  0.59438512  0.18514312    -0.31100
H387        H  0.02697698  0.60532349  0.18223057     0.09900
C388        C  0.96925512  0.60065475  0.14917228     0.03100
C389        C  0.93780289  0.59821082  0.14805438    -0.13400
C390        C  0.91976830  0.63718065  0.15191709    -0.09100
C391        C  0.93388447  0.67859658  0.15914908     0.06500
C392        C  0.96539525  0.68101860  0.16034554    -0.14100
S393        S  0.99126696  0.55085272  0.14118387    -0.31100
H394        H  0.92731632  0.56635972  0.14245538     0.10800
S395        S  0.91311361  0.72944071  0.16700517    -0.28200
H396        H  0.97608153  0.71333280  0.16497853     0.08000
H397        H  0.11178625  0.62951366  0.18721171     0.26400
H398        H  0.96714583  0.51993336  0.13857126     0.21200
H399        H  0.88815427  0.70560319  0.17611218     0.26500
H400        H  0.98257593  0.67368206  0.11083627     0.15400
C401        C  0.54502034  0.91639416  0.85770663    -0.11900
C402        C  0.52898213  0.87487263  0.85858824     0.14600
C403        C  0.54516166  0.83309525  0.85857639     0.01500
C404        C  0.57664984  0.83378542  0.86004195    -0.16300
C405        C  0.59275523  0.87534844  0.86067915    -0.11100
C406        C  0.57658491  0.91707779  0.85841244     0.08300
C407        C  0.49604606  0.87617806  0.86336433     0.09300
S408        S  0.52679365  0.77782396  0.85856089    -0.25400
H409        H  0.58864825  0.80155139  0.86177883     0.19600
S410        S  0.59466021  0.97243481  0.85952570    -0.31100
H411        H  0.53283639  0.94862220  0.85777657     0.09900
C412        C  0.48514298  0.87023812  0.88674418     0.03100
C413        C  0.45405727  0.87048505  0.89088295    -0.13400
C414        C  0.43313446  0.87697544  0.87221147    -0.09100
C415        C  0.44424061  0.88301540  0.84869653     0.06500
C416        C  0.47544806  0.88316455  0.84461978    -0.14100
S417        S  0.51098152  0.86337814  0.91152733    -0.31100
H418        H  0.44602932  0.86638421  0.90896829     0.10800
S419        S  0.41996999  0.88869178  0.82300243    -0.28200
H420        H  0.48372886  0.88761116  0.82660973     0.08000
H421        H  0.61450852  0.96217166  0.84081594     0.26400
H422        H  0.48935783  0.86324806  0.92974211     0.21200
H423        H  0.39933417  0.85514072  0.83062555     0.26500
H424        H  0.50061175  0.79221210  0.84658972     0.15400
C425        C  0.25046818  0.74057990  0.96423645    -0.11900
C426        C  0.25366081  0.75909159  0.98722761     0.14600
C427        C  0.26706841  0.80279048  0.99020663     0.01500
C428        C  0.27831874  0.82590841  0.97030169    -0.16300
C429        C  0.27526388  0.80732868  0.94735359    -0.11100
C430        C  0.26076591  0.76451280  0.94426053     0.08300
C431        C  0.24297080  0.73222241  0.00784464     0.09300
S432        S  0.27102879  0.83041896  0.01892558    -0.25400
H433        H  0.29016663  0.85808250  0.97280589     0.19600
S434        S  0.25651366  0.73737231  0.91549804    -0.31100
H435        H  0.24010451  0.70712705  0.96189615     0.09900
C436        C  0.21208241  0.72660253  0.01197682     0.03100
C437        C  0.20270452  0.70628917  0.03324959    -0.13400
C438        C  0.22345609  0.69280919  0.05098027    -0.09100
C439        C  0.25452307  0.69641926  0.04621956     0.06500
C440        C  0.26390979  0.71539697  0.02451811    -0.14100
S441        S  0.18447638  0.74840004  0.99106150    -0.31100
H442        H  0.17887023  0.70267092  0.03651844     0.10800
S443        S  0.28317819  0.68129208  0.06762314    -0.28200
H444        H  0.28770741  0.71962283  0.02118373     0.08000
H445        H  0.25018217  0.77836325  0.90322482     0.26400
H446        H  0.15900659  0.74005349  0.00518040     0.21200
H447        H  0.27027995  0.70698993  0.08622352     0.26500
H448        H  0.24453233  0.81241803  0.02879580     0.15400
C449        C  0.37991064  0.00744693  0.03982284    -0.11900
C450        C  0.36990629  0.02995313  0.01899752     0.14600
C451        C  0.35786429  0.07453957  0.02103161     0.01500
C452        C  0.35491497  0.09470687  0.04353585    -0.16300
C453        C  0.36405038  0.07213957  0.06467740    -0.11100
C454        C  0.37750723  0.02819576  0.06251997     0.08300
C455        C  0.36866687  0.00473801  0.99581581     0.09300
S456        S  0.34463462  0.10706504  0.99560795    -0.25400
H457        H  0.34449996  0.12828817  0.04440807     0.19600
S458        S  0.39207650  0.99687408  0.08776810    -0.31100
H459        H  0.38917830  0.97315582  0.03842364     0.09900
C460        C  0.39441139  0.99573195  0.98197085     0.03100
C461        C  0.39128294  0.97367135  0.95960971    -0.13400
C462        C  0.36292321  0.95997273  0.95101709    -0.09100
C463        C  0.33722787  0.96911299  0.96504163     0.06500
C464        C  0.34043734  0.99138390  0.98705724    -0.14100
S465        S  0.43110940  0.01247040  0.99274288    -0.31100
H466        H  0.41096524  0.96584840  0.94911425     0.10800
S467        S  0.29945004  0.95300385  0.95643842    -0.28200
H468        H  0.32060910  0.99841725  0.99757933     0.08000
H469        H  0.40509877  0.03575714  0.09867583     0.26400
H470        H  0.44741098  0.99528674  0.97323504     0.21200
H471        H  0.30468850  0.94237553  0.93247326     0.26500
H472        H  0.36485405  0.08829404  0.97907437     0.15400
C473        C  0.22418526  0.85852190  0.14059246    -0.11900
C474        C  0.20955236  0.88752548  0.12429514     0.14600
C475        C  0.18500114  0.87070584  0.11083785     0.01500
C476        C  0.17659323  0.82454399  0.11317268    -0.16300
C477        C  0.19240111  0.79476481  0.12845885    -0.11100
C478        C  0.21580677  0.81248058  0.14290413     0.08300
C479        C  0.22225127  0.93380765  0.12072891     0.09300
S480        S  0.16506406  0.90498399  0.08907346    -0.25400
H481        H  0.15890941  0.81106998  0.10175869     0.19600
S482        S  0.23630345  0.77780459  0.16411883    -0.31100
H483        H  0.24285130  0.87159891  0.15110913     0.09900
C484        C  0.21349123  0.97100102  0.13512237     0.03100
C485        C  0.22938725  0.01247116  0.13374486    -0.13400
C486        C  0.25425585  0.01704954  0.11859221    -0.09100
C487        C  0.26183946  0.98053699  0.10310057     0.06500
C488        C  0.24569413  0.93920638  0.10436762    -0.14100
S489        S  0.18295896  0.96477914  0.15597421    -0.31100
H490        H  0.22359923  0.04041138  0.14561735     0.10800
S491        S  0.29194618  0.98630486  0.08173024    -0.28200
H492        H  0.25192916  0.91036370  0.09320837     0.08000
H493        H  0.21209067  0.74837428  0.16925310     0.26400
H494        H  0.18388430  0.00994173  0.16494995     0.21200
H495        H  0.29100951  0.94091541  0.07308014     0.26500
H496        H  0.17225532  0.94831687  0.09855568     0.15400
C497        C  0.27179438  0.35479519  0.15221395    -0.11900
C498        C  0.28418290  0.38371081  0.13482385     0.14600
C499        C  0.30923773  0.36873133  0.12164124     0.01500
C500        C  0.31991174  0.32391823  0.12482922    -0.16300
C501        C  0.30608207  0.29373047  0.14094868    -0.11100
C502        C  0.28256269  0.31008076  0.15548635     0.08300
C503        C  0.26936114  0.42814027  0.12995840     0.09300
S504        S  0.32695797  0.40379497  0.09918811    -0.25400
H505        H  0.33756726  0.31143962  0.11327419     0.19600
S506        S  0.26446541  0.27463352  0.17761477    -0.31100
H507        H  0.25288637  0.36656133  0.16266255     0.09900
C508        C  0.24827924  0.43301597  0.11125339     0.03100
C509        C  0.23377604  0.47532894  0.10794781    -0.13400
C510        C  0.24004257  0.51291056  0.12293162    -0.09100
C511        C  0.26148433  0.50789159  0.14157536     0.06500
C512        C  0.27582463  0.46549942  0.14484334    -0.14100
S513        S  0.23892582  0.38477318  0.09228663    -0.31100
H514        H  0.21700577  0.47895995  0.09397757     0.10800
S515        S  0.26940769  0.55390740  0.16242311    -0.28200
H516        H  0.29193825  0.46104285  0.15922597     0.08000
H517        H  0.28904035  0.24506494  0.18130490     0.26400
H518        H  0.21902475  0.40838487  0.07702660     0.21200
H519        H  0.28780186  0.52870661  0.17816453     0.26500
H520        H  0.32029019  0.44648934  0.10960826     0.15400
C521        C  0.23057408  0.05244719  0.86609958    -0.11900
C522        C  0.23670084  0.08537199  0.88384737     0.14600
C523        C  0.25541067  0.07307933  0.90328112     0.01500
C524        C  0.26955908  0.03013100  0.90347578    -0.16300
C525        C  0.26470296  0.99778537  0.88519668    -0.11100
C526        C  0.24400468  0.00868854  0.86673626     0.08300
C527        C  0.22613479  0.13357329  0.88057599     0.09300
S528        S  0.26350887  0.11171002  0.92772009    -0.25400
H529        H  0.28531573  0.02245074  0.91774069     0.19600
S530        S  0.23648079  0.97037197  0.84216477    -0.31100
H531        H  0.21617906  0.06153654  0.85115367     0.09900
C532        C  0.24591434  0.16831944  0.87282982     0.03100
C533        C  0.23636888  0.21437601  0.87249140    -0.13400
C534        C  0.20719116  0.22692797  0.87958998    -0.09100
C535        C  0.18669779  0.19117501  0.88552800     0.06500
C536        C  0.19650215  0.14527610  0.88623797    -0.14100
S537        S  0.28370757  0.15400495  0.86392198    -0.31100
H538        H  0.25226288  0.24091289  0.86763768     0.10800
S539        S  0.14774003  0.20127227  0.89233153    -0.28200
H540        H  0.18102455  0.11849804  0.89165547     0.08000
H541        H  0.22827045  0.93349446  0.85699689     0.26400
H542        H  0.29247060  0.19863872  0.85724865     0.21200
H543        H  0.14385291  0.23464944  0.87438347     0.26500
H544        H  0.23606199  0.13546167  0.92678559     0.15400
C545        C  0.25523527  0.59108867  0.88529109    -0.11900
C546        C  0.28647505  0.58641149  0.88388053     0.14600
C547        C  0.29919176  0.54212438  0.88628477     0.01500
C548        C  0.28030516  0.50368841  0.88922046    -0.16300
C549        C  0.24881864  0.50817562  0.88903571    -0.11100
C550        C  0.23638217  0.55299526  0.88755101     0.08300
C551        C  0.30438408  0.62913504  0.88025770     0.09300
S552        S  0.33903927  0.53203059  0.88441465    -0.25400
H553        H  0.29024937  0.46976813  0.89014463     0.19600
S554        S  0.19666217  0.56482928  0.88803268    -0.31100
H555        H  0.24533079  0.62505408  0.88419869     0.09900
C556        C  0.29927577  0.65745643  0.86015006     0.03100
C557        C  0.31030767  0.70265214  0.86005195    -0.13400
C558        C  0.32732413  0.71989461  0.87923154    -0.09100
C559        C  0.33538082  0.68963988  0.89803105     0.06500
C560        C  0.32336860  0.64501498  0.89858075    -0.14100
S561        S  0.27732974  0.63687253  0.83507101    -0.31100
H562        H  0.30407963  0.72562675  0.84565010     0.10800
S563        S  0.35764392  0.70769843  0.92328725    -0.28200
H564        H  0.32754310  0.62343236  0.91402239     0.08000
H565        H  0.19036242  0.53187027  0.90543854     0.26400
H566        H  0.28231363  0.67493934  0.82010700     0.21200
H567        H  0.38055579  0.72654092  0.90911729     0.26500
H568        H  0.34522096  0.56875667  0.86887994     0.15400
C569        C  0.11734078  0.56542867  0.01633991    -0.11900
C570        C  0.12648276  0.51957975  0.01443636     0.14600
C571        C  0.13532960  0.49584150  0.03535790     0.01500
C572        C  0.13694721  0.51923571  0.05728629    -0.16300
C573        C  0.12984390  0.56614386  0.05897049    -0.11100
C574        C  0.11875151  0.58894239  0.03825746     0.08300
C575        C  0.13060483  0.49988742  0.99011140     0.09300
S576        S  0.14661523  0.43645780  0.03500367    -0.25400
H577        H  0.14547943  0.50123881  0.07285004     0.19600
S578        S  0.10633679  0.64811758  0.03922107    -0.31100
H579        H  0.11010267  0.58328494  0.00034778     0.09900
C580        C  0.10708606  0.47850272  0.97727355     0.03100
C581        C  0.11269950  0.45996581  0.95444606    -0.13400
C582        C  0.14135345  0.46279977  0.94406192    -0.09100
C583        C  0.16484135  0.48420578  0.95718177     0.06500
C584        C  0.15905062  0.50311705  0.97969507    -0.14100
S585        S  0.07025120  0.47369470  0.99030632    -0.31100
H586        H  0.09485895  0.44267411  0.94474905     0.10800
S587        S  0.20342442  0.48459254  0.94759161    -0.28200
H588        H  0.17722865  0.51914505  0.98962291     0.08000
H589        H  0.10593746  0.65561998  0.01439314     0.26400
H590        H  0.05733615  0.44705905  0.97193553     0.21200
H591        H  0.20274205  0.44062089  0.93731557     0.26500
H592        H  0.12840779  0.42353459  0.01553710     0.15400
C593        C  0.21988056  0.31395043  0.00131600    -0.11900
C594        C  0.24434387  0.28388467  0.00077748     0.14600
C595        C  0.26015225  0.27700259  0.97935082     0.01500
C596        C  0.25039377  0.29905494  0.95862241    -0.16300
C597        C  0.22520273  0.32804783  0.95881597    -0.11100
C598        C  0.21007649  0.33618902  0.98057074     0.08300
C599        C  0.25317754  0.26065988  0.02296409     0.09300
S600        S  0.29233695  0.23959383  0.97715803    -0.25400
H601        H  0.26196089  0.29209471  0.94201936     0.19600
S602        S  0.17870724  0.37526057  0.98248299    -0.31100
H603        H  0.20845796  0.31980631  0.01808694     0.09900
C604        C  0.26853485  0.28490548  0.04098536     0.03100
C605        C  0.27856062  0.26120045  0.06110707    -0.13400
C606        C  0.27396271  0.21362485  0.06338874    -0.09100
C607        C  0.25809344  0.18945329  0.04547895     0.06500
C608        C  0.24748690  0.21345559  0.02551370    -0.14100
S609        S  0.27676518  0.34546016  0.03775643    -0.31100
H610        H  0.29052629  0.27969200  0.07503829     0.10800
S611        S  0.25241960  0.12809985  0.04632007    -0.28200
H612        H  0.23575104  0.19501879  0.01143459     0.08000
H613        H  0.16787353  0.35882385  0.00441940     0.26400
H614        H  0.29345979  0.35035334  0.05900774     0.21200
H615        H  0.28078383  0.11783050  0.05616393     0.26500
H616        H  0.30313364  0.24678581  0.00051017     0.15400
C617        C  0.71496537  0.35463943  0.14776077    -0.11900
C618        C  0.70447814  0.38077392  0.12832487     0.14600
C619        C  0.68264848  0.36138475  0.11285111     0.01500
C620        C  0.67287484  0.31604308  0.11665587    -0.16300
C621        C  0.68533682  0.28870324  0.13491478    -0.11100
C622        C  0.70572190  0.30907187  0.15119028     0.08300
C623        C  0.71993706  0.42512507  0.12332001     0.09300
S624        S  0.66812045  0.39081177  0.08685787    -0.25400
H625        H  0.65757262  0.30061825  0.10380927     0.19600
S626        S  0.72169424  0.27800316  0.17607283    -0.31100
H627        H  0.73158384  0.36928804  0.15979515     0.09900
C628        C  0.70660767  0.46844138  0.12729856     0.03100
C629        C  0.72406900  0.50868999  0.12488822    -0.13400
C630        C  0.75477331  0.50620652  0.11928528    -0.09100
C631        C  0.76739925  0.46288906  0.11384133     0.06500
C632        C  0.74986996  0.42308947  0.11586020    -0.14100
S633        S  0.66814017  0.47223699  0.13705335    -0.31100
H634        H  0.71439036  0.54183251  0.12904484     0.10800
S635        S  0.80607096  0.45768388  0.10460099    -0.28200
H636        H  0.75977913  0.38977948  0.11241701     0.08000
H637        H  0.69774507  0.24674327  0.17840714     0.26400
H638        H  0.66690540  0.52049026  0.13837681     0.21200
H639        H  0.80598910  0.40992666  0.10067127     0.26500
H640        H  0.69300998  0.41943445  0.08287317     0.15400
C641        C  0.74848967  0.92718629  0.11269385    -0.11900
C642        C  0.77033532  0.92184930  0.13060350     0.14600
C643        C  0.77929019  0.96067339  0.14406108     0.01500
C644        C  0.76514833  0.00318229  0.14011931    -0.16300
C645        C  0.74122570  0.00752099  0.12374402    -0.11100
C646        C  0.73380101  0.96929029  0.10911769     0.08300
C647        C  0.78231291  0.87483417  0.13498599     0.09300
S648        S  0.80726183  0.95772450  0.16742812    -0.25400
H649        H  0.77132542  0.03216706  0.15129321     0.19600
S650        S  0.70555012  0.97318675  0.08587334    -0.31100
H651        H  0.74222645  0.89757207  0.10202412     0.09900
C652        C  0.76421983  0.84052149  0.14536950     0.03100
C653        C  0.77448832  0.79490343  0.14628096    -0.13400
C654        C  0.80268975  0.78237895  0.13705835    -0.09100
C655        C  0.82178289  0.81798755  0.12852328     0.06500
C656        C  0.81118994  0.86337481  0.12722060    -0.14100
S657        S  0.72761718  0.85477463  0.15700396    -0.31100
H658        H  0.75974630  0.76854891  0.15320266     0.10800
S659        S  0.85980318  0.80837612  0.11889376    -0.28200
H660        H  0.82539816  0.88989394  0.11970010     0.08000
H661        H  0.71082590  0.93001607  0.07538807     0.26400
H662        H  0.71956658  0.81009649  0.16414315     0.21200
H663        H  0.86615684  0.77658927  0.13713744     0.26500
H664        H  0.80134557  0.91213514  0.17425140     0.15400
C665        C  0.66660301  0.03571708  0.02141793    -0.11900
C666        C  0.63862843  0.02041556  0.01289828     0.14600
C667        C  0.61354151  0.02276386  0.02838794     0.01500
C668        C  0.61712918  0.04028657  0.05164765    -0.16300
C669        C  0.64480965  0.05804193  0.05942264    -0.11100
C670        C  0.66979869  0.05564052  0.04397357     0.08300
C671        C  0.63726085  0.99964676  0.98847813     0.09300
S672        S  0.57605347  0.00675330  0.01922496    -0.25400
H673        H  0.59775834  0.04253720  0.06317314     0.19600
S674        S  0.70647575  0.07827746  0.05147092    -0.31100
H675        H  0.68627031  0.03260287  0.01021966     0.09900
C676        C  0.64934403  0.02215037  0.96820323     0.03100
C677        C  0.65192076  0.99811272  0.94650413    -0.13400
C678        C  0.64194389  0.95251016  0.94436362    -0.09100
C679        C  0.62707246  0.93195846  0.96390708     0.06500
C680        C  0.62590379  0.95490278  0.98582432    -0.14100
S681        S  0.66175960  0.08133012  0.96979095    -0.31100
H682        H  0.66302426  0.01414840  0.93149463     0.10800
S683        S  0.60905795  0.87647750  0.96202085    -0.28200
H684        H  0.61644282  0.93726262  0.00107153     0.08000
H685        H  0.70373962  0.07548298  0.07635631     0.26400
H686        H  0.67187957  0.08490281  0.94610840     0.21200
H687        H  0.60121328  0.88046589  0.93770254     0.26500
H688        H  0.57960237  0.01902613  0.99510861     0.15400
C689        C  0.52317968  0.13624562  0.12678985    -0.11900
C690        C  0.51357282  0.13599424  0.15054823     0.14600
C691        C  0.53517730  0.13238991  0.16905278     0.01500
C692        C  0.56588414  0.12966397  0.16332993    -0.16300
C693        C  0.57556343  0.13120992  0.13946068    -0.11100
C694        C  0.55359373  0.13337969  0.12104574     0.08300
C695        C  0.48071842  0.13873627  0.15481890     0.09300
S696        S  0.52503331  0.13177753  0.20017438    -0.25400
H697        H  0.58234438  0.12755597  0.17761958     0.19600
S698        S  0.56255209  0.12973965  0.08975254    -0.31100
H699        H  0.50665980  0.13793291  0.11250320     0.09900
C700        C  0.46498710  0.17995662  0.15068748     0.03100
C701        C  0.43348731  0.17958108  0.15019900    -0.13400
C702        C  0.41709539  0.13861764  0.15329320    -0.09100
C703        C  0.43300771  0.09793369  0.15915673     0.06500
C704        C  0.46455749  0.09843592  0.15972776    -0.14100
S705        S  0.48513930  0.23257016  0.14454838    -0.31100
H706        H  0.42155067  0.21091396  0.14584720     0.10800
S707        S  0.41475268  0.04327197  0.16318875    -0.28200
H708        H  0.47662942  0.06661747  0.16274392     0.08000
H709        H  0.58407536  0.09515933  0.09323410     0.26400
H710        H  0.45980760  0.26064739  0.14101068     0.21200
H711        H  0.39504076  0.06005185  0.18068985     0.26500
H712        H  0.49864298  0.15785047  0.19772863     0.15400
C713        C  0.89664357  0.53133835  0.03457856    -0.11900
C714        C  0.87189079  0.51135945  0.02279796     0.14600
C715        C  0.84389194  0.50983926  0.03454435     0.01500
C716        C  0.84129145  0.52816496  0.05756145    -0.16300
C717        C  0.86591136  0.54817725  0.06943732    -0.11100
C718        C  0.89394023  0.54987349  0.05768996     0.08300
C719        C  0.87577162  0.49112243  0.99862078     0.09300
S720        S  0.81014987  0.48685565  0.02093152    -0.25400
H721        H  0.81945498  0.52817231  0.06600248     0.19600
S722        S  0.92704310  0.57462598  0.07129530    -0.31100
H723        H  0.91819234  0.53244454  0.02571401     0.09900
C724        C  0.86649700  0.51440127  0.97778792     0.03100
C725        C  0.86606121  0.49097905  0.95579218    -0.13400
C726        C  0.87403858  0.44425069  0.95421214    -0.09100
C727        C  0.88520884  0.42197436  0.97499077     0.06500
C728        C  0.88610937  0.44581215  0.99683463    -0.14100
S729        S  0.85377587  0.57322747  0.97947887    -0.31100
H730        H  0.85774509  0.50843427  0.94002849     0.10800
S731        S  0.89851209  0.36329250  0.97416480    -0.28200
H732        H  0.89370426  0.42853862  0.01289056     0.08000
H733        H  0.91919510  0.56392411  0.09494782     0.26400
H734        H  0.84857463  0.57929952  0.95486885     0.21200
H735        H  0.90084056  0.35687556  0.99901509     0.26500
H736        H  0.82384222  0.45558760  0.00532976     0.15400
C737        C  0.74946943  0.56941600  0.91153698    -0.11900
C738        C  0.73016809  0.57645182  0.89193954     0.14600
C739        C  0.72518687  0.54010870  0.87566011     0.01500
C740        C  0.74102322  0.49889892  0.87839311    -0.16300
C741        C  0.76183058  0.49287724  0.89708659    -0.11100
C742        C  0.76507321  0.52792560  0.91442173     0.08300
C743        C  0.71844054  0.62342683  0.88747041     0.09300
S744        S  0.70016113  0.54512124  0.85034963    -0.25400
H745        H  0.73826499  0.47220118  0.86499293     0.19600
S746        S  0.78883983  0.52186730  0.94042210    -0.31100
H747        H  0.75311001  0.59701834  0.92428096     0.09900
C748        C  0.69540370  0.64267442  0.90140579     0.03100
C749        C  0.68698932  0.68870325  0.89772060    -0.13400
C750        C  0.70163875  0.71613717  0.88070705    -0.09100
C751        C  0.72386237  0.69617581  0.86611629     0.06500
C752        C  0.73183928  0.64996924  0.86952641    -0.14100
S753        S  0.67741062  0.60898981  0.92432374    -0.31100
H754        H  0.67037500  0.70426834  0.90921676     0.10800
S755        S  0.74234439  0.72961611  0.84328950    -0.28200
H756        H  0.74927107  0.63470049  0.85870760     0.08000
H757        H  0.78694279  0.47364813  0.94171560     0.26400
H758        H  0.65651862  0.64259060  0.93127914     0.21200
H759        H  0.76329791  0.69592365  0.83657584     0.26500
H760        H  0.68090127  0.57778692  0.86060814     0.15400
C761        C  0.78601686  0.15555013  0.86572123    -0.11900
C762        C  0.80178691  0.12610397  0.88108335     0.14600
C763        C  0.82868072  0.14169074  0.89196533     0.01500
C764        C  0.83777757  0.18745265  0.88858727    -0.16300
C765        C  0.82005128  0.21838194  0.87536435    -0.11100
C766        C  0.79479192  0.20125545  0.86270703     0.08300
C767        C  0.78818206  0.08069085  0.88606756     0.09300
S768        S  0.85065544  0.10744771  0.91252600    -0.25400
H769        H  0.85704885  0.20014871  0.89853223     0.19600
S770        S  0.77183971  0.23638627  0.84336965    -0.31100
H771        H  0.76584039  0.14329955  0.85680590     0.09900
C772        C  0.76300244  0.07656342  0.90108133     0.03100
C773        C  0.74773029  0.03444791  0.90244904    -0.13400
C774        C  0.75684673  0.99628460  0.88889855    -0.09100
C775        C  0.78283390  0.00035176  0.87451616     0.06500
C776        C  0.79819996  0.04228832  0.87336584    -0.14100
S777        S  0.74940945  0.12553651  0.91764230    -0.31100
H778        H  0.72789045  0.03170278  0.91345683     0.10800
S779        S  0.79561780  0.95532817  0.85508266    -0.28200
H780        H  0.81723834  0.04573184  0.86152061     0.08000
H781        H  0.79441986  0.26866936  0.83867990     0.26400
H782        H  0.72680168  0.10219220  0.93024086     0.21200
H783        H  0.76747796  0.95174311  0.84376660     0.26500
H784        H  0.83695470  0.06468681  0.90868455     0.15400
C785        C  0.97551172  0.41174329  0.85876785    -0.11900
C786        C  0.98906451  0.36849950  0.85578029     0.14600
C787        C  0.97050738  0.32894907  0.85557312     0.01500
C788        C  0.93981510  0.33301069  0.86064433    -0.16300
C789        C  0.92661493  0.37598012  0.86503524    -0.11100
C790        C  0.94464053  0.41589563  0.86325642     0.08300
C791        C  0.02254524  0.36505050  0.85734330     0.09300
S792        S  0.98484753  0.27215019  0.84963101    -0.25400
H793        H  0.92618948  0.30216923  0.86169627     0.19600
S794        S  0.93028680  0.47265218  0.86896727    -0.31100
H795        H  0.98940766  0.44234241  0.85930487     0.09900
C796        C  0.04203516  0.38948393  0.84206669     0.03100
C797        C  0.07324498  0.38923654  0.84659684    -0.13400
C798        C  0.08559749  0.36429033  0.86582043    -0.09100
C799        C  0.06594659  0.33841775  0.88043440     0.06500
C800        C  0.03499675  0.33927593  0.87610399    -0.14100
S801        S  0.02729839  0.42047567  0.81664709    -0.31100
H802        H  0.08809001  0.40904511  0.83531798     0.10800
S803        S  0.07833139  0.30699058  0.90635341    -0.28200
H804        H  0.02026594  0.32109921  0.88822117     0.08000
H805        H  0.91586082  0.46004359  0.89024148     0.26400
H806        H  0.05513410  0.43487514  0.80751380     0.21200
H807        H  0.09020998  0.34649957  0.91738082     0.26500
H808        H  0.00927785  0.28680794  0.83573458     0.15400
C809        C  0.77964804  0.23471025  0.98285769    -0.11900
C810        C  0.76686437  0.26324865  0.00005567     0.14600
C811        C  0.76299998  0.31056303  0.99509968     0.01500
C812        C  0.77195186  0.32813459  0.97288845    -0.16300
C813        C  0.78491386  0.29942050  0.95567013    -0.11100
C814        C  0.78832517  0.25207268  0.96076675     0.08300
C815        C  0.75431525  0.24107159  0.02147830     0.09300
S816        S  0.74647968  0.34999362  0.01613123    -0.25400
H817        H  0.76957810  0.36454657  0.96929421     0.19600
S818        S  0.80211494  0.21138536  0.93935465    -0.31100
H819        H  0.78180720  0.19820532  0.98635353     0.09900
C820        C  0.72434015  0.22589082  0.02148398     0.03100
C821        C  0.71286010  0.20489732  0.04190778    -0.13400
C822        C  0.73065210  0.19874689  0.06249087    -0.09100
C823        C  0.76103130  0.21288425  0.06221395     0.06500
C824        C  0.77269919  0.23321165  0.04152275    -0.14100
S825        S  0.70063220  0.23348362  0.99545642    -0.31100
H826        H  0.68962679  0.19377555  0.04200089     0.10800
S827        S  0.78529584  0.20880893  0.08797814    -0.28200
H828        H  0.79592663  0.24440294  0.04129277     0.08000
H829        H  0.78629017  0.23112156  0.92012867     0.26400
H830        H  0.67525248  0.21051537  0.00440713     0.21200
H831        H  0.76361857  0.22481064  0.10415623     0.26500
H832        H  0.75376285  0.32532150  0.03692590     0.15400
C833        C  0.73763505  0.56849632  0.28477347    -0.11900
C834        C  0.74363595  0.60759241  0.27090658     0.14600
C835        C  0.73305185  0.65074880  0.27880681     0.01500
C836        C  0.71816419  0.65409882  0.30076800    -0.16300
C837        C  0.71254210  0.61517352  0.31500774    -0.11100
C838        C  0.72213287  0.57169598  0.30650909     0.08300
C839        C  0.75934767  0.60204028  0.24766607     0.09300
S840        S  0.73837212  0.70316064  0.26207144    -0.25400
H841        H  0.71121495  0.68772521  0.30697270     0.19600
S842        S  0.71751066  0.51956176  0.32339435    -0.31100
H843        H  0.74531208  0.53517873  0.27867623     0.09900
C844        C  0.78997798  0.61328761  0.24450057     0.03100
C845        C  0.80260233  0.61185660  0.22139156    -0.13400
C846        C  0.78511614  0.59914743  0.20144615    -0.09100
C847        C  0.75504767  0.58470273  0.20524701     0.06500
C848        C  0.74254687  0.58680857  0.22804773    -0.14100
S849        S  0.81268411  0.63017138  0.26983280    -0.31100
H850        H  0.82567813  0.62240672  0.21872261     0.10800
S851        S  0.73140862  0.56222074  0.18178136    -0.28200
H852        H  0.71924574  0.57704751  0.23048486     0.08000
H853        H  0.68602313  0.52341791  0.32394614     0.26400
H854        H  0.83991799  0.63420225  0.25738428     0.21200
H855        H  0.75467028  0.53654453  0.17144541     0.26500
H856        H  0.73961597  0.68327204  0.23923850     0.15400
C857        C  0.79099927  0.93793951  0.73718101    -0.11900
C858        C  0.77668853  0.89867009  0.74621181     0.14600
C859        C  0.77707907  0.85770379  0.73276136     0.01500
C860        C  0.79115145  0.85707287  0.71055119    -0.16300
C861        C  0.80446689  0.89671464  0.70076388    -0.11100
C862        C  0.80509896  0.93734843  0.71478102     0.08300
C863        C  0.76263758  0.90018406  0.77012158     0.09300
S864        S  0.75971499  0.80496881  0.74270948    -0.25400
H865        H  0.79066913  0.82539259  0.70041940     0.19600
S866        S  0.82224555  0.98998784  0.70488466    -0.31100
H867        H  0.79122669  0.96921745  0.74768777     0.09900
C868        C  0.77715922  0.88060453  0.79000485     0.03100
C869        C  0.76159751  0.87620375  0.81153405    -0.13400
C870        C  0.73186582  0.89204477  0.81399800    -0.09100
C871        C  0.71774013  0.91325080  0.79417851     0.06500
C872        C  0.73331323  0.91726190  0.77251336    -0.14100
S873        S  0.81560695  0.86123098  0.78792334    -0.31100
H874        H  0.77295496  0.86097756  0.82673801     0.10800
S875        S  0.67954014  0.93346163  0.79493027    -0.28200
H876        H  0.72207861  0.93208373  0.75712259     0.08000
H877        H  0.85021356  0.96908830  0.70063978     0.26400
H878        H  0.81970635  0.85146473  0.81233574     0.21200
H879        H  0.66889810  0.89707520  0.80912291     0.26500
H880        H  0.73662719  0.82525241  0.75604165     0.15400
C881        C  0.75924858  0.82310419  0.52083841    -0.11900
C882        C  0.75853094  0.77495487  0.51883882     0.14600
C883        C  0.76798191  0.74754289  0.53821841     0.01500
C884        C  0.77819746  0.76877551  0.55902363    -0.16300
C885        C  0.77985312  0.81681008  0.56084625    -0.11100
C886        C  0.77019772  0.84439810  0.54160336     0.08300
C887        C  0.74744408  0.75408260  0.49651696     0.09300
S888        S  0.76795903  0.68545704  0.53753938    -0.25400
H889        H  0.78592513  0.74752656  0.57374679     0.19600
S890        S  0.77268047  0.90628671  0.54201338    -0.31100
H891        H  0.75187741  0.84410255  0.50593433     0.09900
C892        C  0.71851113  0.73487999  0.49515827     0.03100
C893        C  0.70887241  0.71505746  0.47373531    -0.13400
C894        C  0.72758778  0.71375700  0.45360371    -0.09100
C895        C  0.75672532  0.73273616  0.45508096     0.06500
C896        C  0.76642817  0.75247174  0.47660989    -0.14100
S897        S  0.69356350  0.73665101  0.52049035    -0.31100
H898        H  0.68638583  0.70094062  0.47252198     0.10800
S899        S  0.78171300  0.73533466  0.42993220    -0.28200
H900        H  0.78874266  0.76726553  0.47779839     0.08000
H901        H  0.79930529  0.90891342  0.55559878     0.26400
H902        H  0.67087737  0.70865351  0.51060626     0.21200
H903        H  0.75928733  0.74765304  0.41333192     0.26500
H904        H  0.77254347  0.68058419  0.51286300     0.15400
C905        C  0.22691892  0.58625227  0.23265858    -0.11900
C906        C  0.24980369  0.61821304  0.23782127     0.14600
C907        C  0.25727183  0.65106531  0.22034965     0.01500
C908        C  0.24069495  0.65326148  0.19909631    -0.16300
C909        C  0.21720247  0.62204657  0.19374223    -0.11100
C910        C  0.21068673  0.58762925  0.21094290     0.08300
C911        C  0.26407899  0.61879713  0.26203749     0.09300
S912        S  0.28815520  0.69088798  0.22382531    -0.25400
H913        H  0.24722647  0.67912056  0.18622686     0.19600
S914        S  0.18223849  0.54443861  0.20649483    -0.31100
H915        H  0.22120726  0.56057159  0.24589949     0.09900
C916        C  0.25867709  0.65509809  0.27819139     0.03100
C917        C  0.27208626  0.65436473  0.30094644    -0.13400
C918        C  0.29075262  0.61799369  0.30830121    -0.09100
C919        C  0.29635057  0.58181130  0.29201379     0.06500
C920        C  0.28320878  0.58279826  0.26907754    -0.14100
S921        S  0.23341844  0.70139219  0.27037443    -0.31100
H922        H  0.26734046  0.68183789  0.31342242     0.10800
S923        S  0.31825324  0.53207168  0.29994327    -0.28200
H924        H  0.28740349  0.55477075  0.25678201     0.08000
H925        H  0.16014668  0.57638606  0.19961130     0.26400
H926        H  0.23872056  0.72855085  0.29077145     0.21200
H927        H  0.30494407  0.52653056  0.32248483     0.26500
H928        H  0.30562380  0.66293368  0.23892995     0.15400
C929        C  0.47019183  0.68386117  0.37097891    -0.11900
C930        C  0.48417675  0.64905276  0.35774996     0.14600
C931        C  0.46593612  0.61560435  0.34642844     0.01500
C932        C  0.43475912  0.61563668  0.35008706    -0.16300
C933        C  0.42078772  0.64895641  0.36449669    -0.11100
C934        C  0.43902208  0.68441196  0.37440756     0.08300
C935        C  0.51760077  0.64478706  0.35924951     0.09300
S936        S  0.48118455  0.57144513  0.32743744    -0.25400
H937        H  0.42137376  0.58864493  0.34193924     0.19600
S938        S  0.42474817  0.72937483  0.39329854    -0.31100
H939        H  0.48391257  0.70946073  0.37996715     0.09900
C940        C  0.53718316  0.68076294  0.35246784     0.03100
C941        C  0.56815193  0.67738163  0.35761179    -0.13400
C942        C  0.58002857  0.63846061  0.36907152    -0.09100
C943        C  0.56053176  0.60208014  0.37515029     0.06500
C944        C  0.52977895  0.60543628  0.37010722    -0.14100
S945        S  0.52281417  0.73077077  0.33711867    -0.31100
H946        H  0.58312444  0.70537243  0.35308861     0.10800
S947        S  0.57335683  0.55214074  0.39114064    -0.28200
H948        H  0.51496374  0.57801765  0.37581054     0.08000
H949        H  0.41453255  0.69820224  0.41067390     0.26400
H950        H  0.55041206  0.75400497  0.33507968     0.21200
H951        H  0.58865760  0.57824153  0.40847404     0.26500
H952        H  0.50657650  0.59666623  0.32031457     0.15400
C953        C  0.22909682  0.90770366  0.74036782    -0.11900
C954        C  0.26057877  0.90363864  0.74160727     0.14600
C955        C  0.27682760  0.89715339  0.72033755     0.01500
C956        C  0.26141836  0.89254159  0.69865147    -0.16300
C957        C  0.22996773  0.89566491  0.69734942    -0.11100
C958        C  0.21362920  0.90395352  0.71843891     0.08300
C959        C  0.27578772  0.90160524  0.76530558     0.09300
S960        S  0.31728482  0.89436709  0.71972450    -0.25400
H961        H  0.27420927  0.88718096  0.68246433     0.19600
S962        S  0.17322529  0.90796512  0.71867306    -0.31100
H963        H  0.21646685  0.91245241  0.75666566     0.09900
C964        C  0.28159389  0.94132839  0.77899365     0.03100
C965        C  0.29633148  0.93730632  0.80121618    -0.13400
C966        C  0.30472586  0.89413959  0.81036752    -0.09100
C967        C  0.29934956  0.85442685  0.79628919     0.06500
C968        C  0.28522325  0.85872841  0.77390872    -0.14100
S969        S  0.27002465  0.99703347  0.76818674    -0.31100
H970        H  0.29993218  0.96766298  0.81206395     0.10800
S971        S  0.31079169  0.79803455  0.80639131    -0.28200
H972        H  0.28119673  0.82849310  0.76305117     0.08000
H973        H  0.16807098  0.87885186  0.69900515     0.26400
H974        H  0.27929700  0.02224635  0.78838196     0.21200
H975        H  0.29565563  0.77265457  0.78860752     0.26500
H976        H  0.32213149  0.92422483  0.73912962     0.15400
C977        C  0.97736448  0.89377738  0.66847771    -0.11900
C978        C  0.99701455  0.87821633  0.65069778     0.14600
C979        C  0.98491877  0.85990696  0.62937964     0.01500
C980        C  0.95369594  0.85736116  0.62630558    -0.16300
C981        C  0.93371381  0.87347604  0.64382652    -0.11100
C982        C  0.94599706  0.89155330  0.66535220     0.08300
C983        C  0.03019188  0.88079454  0.65431405     0.09300
S984        S  0.00924910  0.84220352  0.60529646    -0.25400
H985        H  0.94485710  0.84434302  0.60956783     0.19600
S986        S  0.92318678  0.91192339  0.68962208    -0.31100
H987        H  0.98655667  0.90759075  0.68495468     0.09900
C988        C  0.04590129  0.92300493  0.65374189     0.03100
C989        C  0.07746790  0.92293918  0.65211726    -0.13400
C990        C  0.09354511  0.88150922  0.65077729    -0.09100
C991        C  0.07793057  0.83956967  0.65369408     0.06500
C992        C  0.04657412  0.83965889  0.65544251    -0.14100
S993        S  0.02572799  0.97676968  0.65267328    -0.31100
H994        H  0.08939938  0.95507687  0.64978788     0.10800
S995        S  0.09670998  0.78467680  0.65417412    -0.28200
H996        H  0.03468370  0.80717611  0.65639889     0.08000
H997        H  0.90226777  0.87573296  0.68793864     0.26400
H998        H  0.05109092  0.00567169  0.65316649     0.21200
H999        H  0.12421223  0.80165735  0.66304091     0.26500
H1000       H  0.98661558  0.82637179  0.58968949     0.15400
C1001       C  0.26880820  0.76462624  0.53583223    -0.11900
C1002       C  0.25286130  0.77195905  0.51447837     0.14600
C1003       C  0.22747948  0.80099207  0.51448765     0.01500
C1004       C  0.21783503  0.82014992  0.53602479    -0.16300
C1005       C  0.23361427  0.81224423  0.55741189    -0.11100
C1006       C  0.25954191  0.78452048  0.55721832     0.08300
C1007       C  0.26262310  0.74680660  0.49295904     0.09300
S1008       S  0.20662124  0.81500465  0.48774522    -0.25400
H1009       H  0.19783892  0.84138278  0.53613979     0.19600
S1010       S  0.28034518  0.77039572  0.58389901    -0.31100
H1011       H  0.28811390  0.74196217  0.53595614     0.09900
C1012       C  0.29153381  0.75358960  0.48356492     0.03100
C1013       C  0.30102249  0.72639735  0.46451903    -0.13400
C1014       C  0.28199941  0.69330548  0.45411422    -0.09100
C1015       C  0.25279129  0.68708749  0.46321418     0.06500
C1016       C  0.24347237  0.71372506  0.48265889    -0.14100
S1017       S  0.31584176  0.79848096  0.49498939    -0.31100
H1018       H  0.32306450  0.73227803  0.45700757     0.10800
S1019       S  0.22683005  0.64526746  0.45124668    -0.28200
H1020       H  0.22130567  0.70823761  0.49004464     0.08000
H1021       H  0.25464889  0.75897746  0.59709424     0.26400
H1022       H  0.33993649  0.79096652  0.47933249     0.21200
H1023       H  0.24889009  0.61342277  0.44434660     0.26500
H1024       H  0.23106657  0.81144622  0.47206094     0.15400
C1025       C  0.22089941  0.07164847  0.27757498    -0.11900
C1026       C  0.23930351  0.10835209  0.27037274     0.14600
C1027       C  0.24168756  0.14745403  0.28522659     0.01500
C1028       C  0.22649135  0.14836918  0.30703916    -0.16300
C1029       C  0.20835785  0.11153786  0.31453538    -0.11100
C1030       C  0.20528082  0.07296927  0.29932591     0.08300
C1031       C  0.25280352  0.10735231  0.24616173     0.09300
S1032       S  0.26315606  0.19790354  0.27736122    -0.25400
H1033       H  0.22927180  0.17803109  0.31853787     0.19600
S1034       S  0.18338609  0.02338723  0.30736959    -0.31100
H1035       H  0.21845701  0.04194965  0.26603560     0.09900
C1036       C  0.28169843  0.08947167  0.24163420     0.03100
C1037       C  0.29371000  0.09194385  0.21834228    -0.13400
C1038       C  0.27725397  0.11188779  0.19948330    -0.09100
C1039       C  0.24763124  0.12784612  0.20424684     0.06500
C1040       C  0.23618042  0.12604563  0.22737138    -0.14100
S1041       S  0.30353176  0.06515265  0.26574301    -0.31100
H1042       H  0.31616611  0.07941721  0.21495397     0.10800
S1043       S  0.22223370  0.14927393  0.18166400    -0.28200
H1044       H  0.21380368  0.13909538  0.23076340     0.08000
H1045       H  0.15683010  0.04883929  0.31037051     0.26400
H1046       H  0.32870730  0.05337147  0.25197961     0.21200
H1047       H  0.22881314  0.11391680  0.16545782     0.26500
H1048       H  0.28321190  0.17670251  0.26159119     0.15400
C1049       C  0.14051485  0.98336627  0.47502063    -0.11900
C1050       C  0.12710344  0.00912687  0.49328359     0.14600
C1051       C  0.11306447  0.05105055  0.48746078     0.01500
C1052       C  0.11474542  0.06789459  0.46408544    -0.16300
C1053       C  0.12957520  0.04342028  0.44586768    -0.11100
C1054       C  0.14111293  0.99921274  0.45138650     0.08300
C1055       C  0.12977915  0.99244384  0.51829892     0.09300
S1056       S  0.09324291  0.08517285  0.50915103    -0.25400
H1057       H  0.10508771  0.10131390  0.46039177     0.19600
S1058       S  0.15687149  0.96103766  0.42943921    -0.31100
H1059       H  0.15085092  0.95064624  0.47928176     0.09900
C1060       C  0.11688007  0.95046263  0.52543149     0.03100
C1061       C  0.12356086  0.93269880  0.54812618    -0.13400
C1062       C  0.14289382  0.95593221  0.56405904    -0.09100
C1063       C  0.15415175  0.99957216  0.55739309     0.06500
C1064       C  0.14745187  0.01731695  0.53468106    -0.14100
S1065       S  0.09198684  0.91935604  0.50556934    -0.31100
H1066       H  0.11433783  0.89972130  0.55327413     0.10800
S1067       S  0.17925646  0.03232925  0.57602088    -0.28200
H1068       H  0.15735858  0.04971080  0.52926930     0.08000
H1069       H  0.13427771  0.96976552  0.41234692     0.26400
H1070       H  0.08724294  0.88126545  0.52055333     0.21200
H1071       H  0.19760522  0.99420681  0.58050772     0.26500
H1072       H  0.08446109  0.04817465  0.52369399     0.15400
C1073       C  0.26392823  0.94400350  0.40931666    -0.11900
C1074       C  0.27596558  0.93033748  0.38722924     0.14600
C1075       C  0.27433540  0.96104015  0.36772221     0.01500
C1076       C  0.25863253  0.00238694  0.37009134    -0.16300
C1077       C  0.24526622  0.01494672  0.39176566    -0.11100
C1078       C  0.24898015  0.98621042  0.41187896     0.08300
C1079       C  0.28637346  0.88200586  0.38421711     0.09300
S1080       S  0.29075189  0.94861965  0.33906023    -0.25400
H1081       H  0.25581048  0.02427981  0.35456366     0.19600
S1082       S  0.23298451  0.99931261  0.44060074    -0.31100
H1083       H  0.26499914  0.92070776  0.42439756     0.09900
C1084       C  0.31084326  0.86407697  0.39720006     0.03100
C1085       C  0.31801132  0.81725337  0.39506634    -0.13400
C1086       C  0.30134475  0.78732322  0.38011922    -0.09100
C1087       C  0.27776505  0.80626003  0.36607157     0.06500
C1088       C  0.27049486  0.85305154  0.36852657    -0.14100
S1089       S  0.33303808  0.90079339  0.41648741    -0.31100
H1090       H  0.33627103  0.80371920  0.40578550     0.10800
S1091       S  0.25627688  0.77190176  0.34511699    -0.28200
H1092       H  0.25181981  0.86724154  0.35849378     0.08000
H1093       H  0.23339391  0.04726965  0.43803710     0.26400
H1094       H  0.35473569  0.86783084  0.42286299     0.21200
H1095       H  0.23805582  0.80734819  0.33603327     0.26500
H1096       H  0.31392297  0.92050279  0.34795615     0.15400
C1097       C  0.21092002  0.46226520  0.38415672    -0.11900
C1098       C  0.22693975  0.42101038  0.38707865     0.14600
C1099       C  0.25830366  0.42298339  0.39072806     0.01500
C1100       C  0.27308013  0.46539455  0.39004700    -0.16300
C1101       C  0.25737539  0.50672961  0.38642433    -0.11100
C1102       C  0.22577939  0.50500406  0.38371345     0.08300
C1103       C  0.21108641  0.37610523  0.38493941     0.09300
S1104       S  0.28084540  0.37247675  0.39608424    -0.25400
H1105       H  0.29726621  0.46610414  0.39228527     0.19600
S1106       S  0.20349360  0.55544920  0.37798198    -0.31100
H1107       H  0.18683710  0.46099904  0.38133532     0.09900
C1108       C  0.19305008  0.35885850  0.40347697     0.03100
C1109       C  0.18219194  0.31350991  0.40216841    -0.13400
C1110       C  0.18891257  0.28479412  0.38262462    -0.09100
C1111       C  0.20483380  0.30376885  0.36315016     0.06500
C1112       C  0.21609523  0.34873729  0.36469197    -0.14100
S1113       S  0.18585974  0.39334935  0.42964856    -0.31100
H1114       H  0.17001527  0.29951189  0.41719160     0.10800
S1115       S  0.21152923  0.27262322  0.33586009    -0.28200
H1116       H  0.22939536  0.36230379  0.35014415     0.08000
H1117       H  0.22393361  0.57512543  0.36186140     0.26400
H1118       H  0.16699327  0.36164474  0.44119599     0.21200
H1119       H  0.18454100  0.24740185  0.33662154     0.26500
H1120       H  0.25861337  0.34764805  0.40832610     0.15400
C1121       C  0.26859286  0.35950301  0.73250223    -0.11900
C1122       C  0.26143194  0.40256951  0.74233314     0.14600
C1123       C  0.27164598  0.44263745  0.73038063     0.01500
C1124       C  0.28626500  0.43849226  0.70821810    -0.16300
C1125       C  0.29274277  0.39517002  0.69832237    -0.11100
C1126       C  0.28499033  0.35541423  0.71143299     0.08300
C1127       C  0.24629729  0.40274238  0.76618839     0.09300
S1128       S  0.26773346  0.49975371  0.74252039    -0.25400
H1129       H  0.29224288  0.46935565  0.69848857     0.19600
S1130       S  0.29624761  0.29826193  0.70271623    -0.31100
H1131       H  0.26200862  0.32837699  0.74176256     0.09900
C1132       C  0.21812503  0.42358232  0.77073178     0.03100
C1133       C  0.20533351  0.42036959  0.79379351    -0.13400
C1134       C  0.21908961  0.39413919  0.81195024    -0.09100
C1135       C  0.24578080  0.36985212  0.80625089     0.06500
C1136       C  0.25959721  0.37639286  0.78427358    -0.14100
S1137       S  0.19768479  0.45207452  0.74706553    -0.31100
H1138       H  0.18465715  0.43832445  0.79767594     0.10800
S1139       S  0.26255999  0.32685504  0.82528686    -0.28200
H1140       H  0.28055227  0.35871650  0.78081782     0.08000
H1141       H  0.32308360  0.31211723  0.69163981     0.26400
H1142       H  0.17273124  0.46497802  0.76081543     0.21200
H1143       H  0.23471259  0.30682265  0.83091904     0.26500
H1144       H  0.26780277  0.48652405  0.76665743     0.15400
C1145       C  0.28634138  0.05829064  0.60825753    -0.11900
C1146       C  0.29548632  0.07244138  0.63117425     0.14600
C1147       C  0.29079687  0.04277954  0.65073869     0.01500
C1148       C  0.27443929  0.00211875  0.64742152    -0.16300
C1149       C  0.26299095  0.99000520  0.62486330    -0.11100
C1150       C  0.27052157  0.01704625  0.60485322     0.08300
C1151       C  0.30349178  0.12148303  0.63472402     0.09300
S1152       S  0.30345952  0.05652962  0.68054661    -0.25400
H1153       H  0.26923340  0.98097361  0.66281360     0.19600
S1154       S  0.26043068  0.00118411  0.57472865    -0.31100
H1155       H  0.29020851  0.08066793  0.59309755     0.09900
C1156       C  0.33148005  0.13994111  0.62817993     0.03100
C1157       C  0.33574505  0.18790158  0.62868051    -0.13400
C1158       C  0.31244833  0.21785185  0.63556607    -0.09100
C1159       C  0.28515186  0.19847011  0.64395934     0.06500
C1160       C  0.28109889  0.15073032  0.64326838    -0.14100
S1161       S  0.36144027  0.10241407  0.61885841    -0.31100
H1162       H  0.35680269  0.20211853  0.62251506     0.10800
S1163       S  0.25486815  0.23344141  0.65542872    -0.28200
H1164       H  0.25987500  0.13588386  0.64867355     0.08000
H1165       H  0.25588475  0.95414595  0.57923100     0.26400
H1166       H  0.38354705  0.13674647  0.61667800     0.21200
H1167       H  0.23445472  0.19768733  0.66015623     0.26500
H1168       H  0.32746097  0.08480845  0.67347560     0.15400
C1169       C  0.24679427  0.57507357  0.60888505    -0.11900
C1170       C  0.22548185  0.57966455  0.62708792     0.14600
C1171       C  0.21905939  0.54160275  0.64182467     0.01500
C1172       C  0.23555706  0.50096110  0.63911963    -0.16300
C1173       C  0.25817319  0.49720967  0.62179131    -0.11100
C1174       C  0.26288995  0.53420350  0.60587836     0.08300
C1175       C  0.21251680  0.62580392  0.63128707     0.09300
S1176       S  0.19129085  0.54354196  0.66512976    -0.25400
H1177       H  0.23161209  0.47277956  0.65137663     0.19600
S1178       S  0.28902165  0.53137967  0.58141505    -0.31100
H1179       H  0.25140387  0.60399619  0.59725704     0.09900
C1180       C  0.22495830  0.65555092  0.64859249     0.03100
C1181       C  0.21586815  0.70167901  0.64922530    -0.13400
C1182       C  0.19438409  0.71871194  0.63303047    -0.09100
C1183       C  0.18033875  0.68779467  0.61690784     0.06500
C1184       C  0.18984939  0.64193935  0.61599769    -0.14100
S1185       S  0.25430276  0.63581660  0.66849805    -0.31100
H1186       H  0.22686365  0.72533490  0.66141161     0.10800
S1187       S  0.15297549  0.70587415  0.59507549    -0.28200
H1188       H  0.18033721  0.61906402  0.60265842     0.08000
H1189       H  0.28514059  0.48403064  0.57723753     0.26400
H1190       H  0.25654655  0.67629455  0.68216031     0.21200
H1191       H  0.13422138  0.72645468  0.61213485     0.26500
H1192       H  0.17314696  0.57749451  0.65456782     0.15400
C1193       C  0.36035119  0.48197533  0.46902021    -0.11900
C1194       C  0.36261379  0.50999306  0.48945267     0.14600
C1195       C  0.36583546  0.55787355  0.48639933     0.01500
C1196       C  0.36660513  0.57648332  0.46335255    -0.16300
C1197       C  0.36296726  0.54891732  0.44279923    -0.11100
C1198       C  0.36029012  0.50072775  0.44588178     0.08300
C1199       C  0.36109835  0.48852045  0.51363069     0.09300
S1200       S  0.36708290  0.59757672  0.51115656    -0.25400
H1201       H  0.36821974  0.61350126  0.46163529     0.19600
S1202       S  0.35684924  0.46112111  0.42126744    -0.31100
H1203       H  0.35829179  0.44507873  0.47114982     0.09900
C1204       C  0.33524923  0.46443217  0.52103538     0.03100
C1205       C  0.33477449  0.44408143  0.54368233    -0.13400
C1206       C  0.35932515  0.44741551  0.55945150    -0.09100
C1207       C  0.38500959  0.47227540  0.55237948     0.06500
C1208       C  0.38562346  0.49251885  0.52955417    -0.14100
S1209       S  0.30224875  0.46084650  0.50213209    -0.31100
H1210       H  0.31495753  0.42541003  0.54930072     0.10800
S1211       S  0.41783665  0.47826352  0.57116142    -0.28200
H1212       H  0.40553496  0.51102303  0.52400847     0.08000
H1213       H  0.37742006  0.48461849  0.40668852     0.26400
H1214       H  0.28566856  0.43076282  0.51668729     0.21200
H1215       H  0.41418129  0.43705872  0.58392364     0.26500
H1216       H  0.34703714  0.57293024  0.52567655     0.15400
C1217       C  0.21836757  0.20087851  0.50153929    -0.11900
C1218       C  0.22812497  0.24662194  0.49894124     0.14600
C1219       C  0.22725071  0.26735364  0.47618241     0.01500
C1220       C  0.21838453  0.24143608  0.45645157    -0.16300
C1221       C  0.20897945  0.19568254  0.45890805    -0.11100
C1222       C  0.20835579  0.17530626  0.48177859     0.08300
C1223       C  0.24220985  0.27039124  0.51951037     0.09300
S1224       S  0.23682073  0.32687893  0.47118944    -0.25400
H1225       H  0.21799170  0.25761826  0.43899520     0.19600
S1226       S  0.19600255  0.11698158  0.48688450    -0.31100
H1227       H  0.21922281  0.18471712  0.51897608     0.09900
C1228       C  0.22602404  0.28158424  0.54025783     0.03100
C1229       C  0.24099051  0.30284075  0.55943584    -0.13400
C1230       C  0.27177960  0.31304367  0.55819757    -0.09100
C1231       C  0.28754520  0.30397139  0.53686451     0.06500
C1232       C  0.27265720  0.28220072  0.51793272    -0.14100
S1233       S  0.18635880  0.26922171  0.54222528    -0.31100
H1234       H  0.22895157  0.31007272  0.57575543     0.10800
S1235       S  0.32633249  0.32104998  0.53318744    -0.28200
H1236       H  0.28474527  0.27406372  0.50174582     0.08000
H1237       H  0.20108184  0.10037413  0.46369844     0.26400
H1238       H  0.18219114  0.28693799  0.56535356     0.21200
H1239       H  0.32958254  0.30615909  0.50943684     0.26500
H1240       H  0.22774456  0.34258127  0.49378814     0.15400
C1241       C  0.77404082  0.14582528  0.27186405    -0.11900
C1242       C  0.75320067  0.10989757  0.26843321     0.14600
C1243       C  0.75078661  0.07583511  0.28641397     0.01500
C1244       C  0.76826251  0.07925318  0.30730211    -0.16300
C1245       C  0.78736678  0.11692163  0.31136599    -0.11100
C1246       C  0.79071347  0.15003890  0.29314062     0.08300
C1247       C  0.73493629  0.10857475  0.24582660     0.09300
S1248       S  0.72420083  0.02909908  0.28479084    -0.25400
H1249       H  0.76504786  0.05415783  0.32138565     0.19600
S1250       S  0.81569203  0.19860303  0.29605216    -0.31100
H1251       H  0.77694382  0.17138770  0.25798319     0.09900
C1252       C  0.71677480  0.14604588  0.23862556     0.03100
C1253       C  0.70264886  0.14535694  0.21607810    -0.13400
C1254       C  0.70487721  0.10711989  0.20089157    -0.09100
C1255       C  0.72101340  0.06820086  0.20885492     0.06500
C1256       C  0.73639392  0.06974909  0.23089716    -0.14100
S1257       S  0.71124551  0.19481139  0.25811387    -0.31100
H1258       H  0.69033695  0.17522007  0.20993921     0.10800
S1259       S  0.72365758  0.01746590  0.19041241    -0.28200
H1260       H  0.75016532  0.04094050  0.23635784     0.08000
H1261       H  0.83442990  0.17932016  0.31369286     0.26400
H1262       H  0.68974240  0.21739271  0.24384258     0.21200
H1263       H  0.74279841  0.99223394  0.20556827     0.26500
H1264       H  0.70174155  0.05406867  0.27273526     0.15400
C1265       C  0.78072994  0.37000836  0.36209899    -0.11900
C1266       C  0.79425143  0.39673228  0.38006223     0.14600
C1267       C  0.81722839  0.37721778  0.39425233     0.01500
C1268       C  0.82480251  0.33081167  0.39116148    -0.16300
C1269       C  0.80926802  0.30283122  0.37468750    -0.11100
C1270       C  0.78800867  0.32349947  0.35921525     0.08300
C1271       C  0.78116325  0.44253295  0.38527660     0.09300
S1272       S  0.83564542  0.40834078  0.41806880    -0.25400
H1273       H  0.84097921  0.31549857  0.40331588     0.19600
S1274       S  0.76868751  0.29204801  0.33600607    -0.31100
H1275       H  0.76333232  0.38499689  0.35093954     0.09900
C1276       C  0.78716261  0.48112505  0.37090593     0.03100
C1277       C  0.77092068  0.52194744  0.37447906    -0.13400
C1278       C  0.74842233  0.52472485  0.39196885    -0.09100
C1279       C  0.74391301  0.48680910  0.40739070     0.06500
C1280       C  0.76031877  0.44620940  0.40384255    -0.14100
S1281       S  0.81479885  0.47772722  0.34751881    -0.31100
H1282       H  0.77444137  0.55080460  0.36261096     0.10800
S1283       S  0.71710529  0.48936789  0.43147554    -0.28200
H1284       H  0.75609453  0.41646961  0.41495568     0.08000
H1285       H  0.79140473  0.25912751  0.33306247     0.26400
H1286       H  0.81323949  0.52411847  0.34054676     0.21200
H1287       H  0.72496627  0.44741410  0.44230160     0.26500
H1288       H  0.83151285  0.45244013  0.40837604     0.15400
C1289       C  0.73998905  0.94281008  0.39646896    -0.11900
C1290       C  0.71823067  0.93892815  0.37837225     0.14600
C1291       C  0.71161738  0.97780602  0.36417250     0.01500
C1292       C  0.72766007  0.01893982  0.36784414    -0.16300
C1293       C  0.75022656  0.02248226  0.38551072    -0.11100
C1294       C  0.75579373  0.98384553  0.40032363     0.08300
C1295       C  0.70407352  0.89307341  0.37460059     0.09300
S1296       S  0.68405160  0.97661969  0.34043915    -0.25400
H1297       H  0.72326305  0.04785146  0.35613968     0.19600
S1298       S  0.78270538  0.98433868  0.42453442    -0.31100
H1299       H  0.74495986  0.91324099  0.40758478     0.09900
C1300       C  0.71569069  0.86150599  0.35794115     0.03100
C1301       C  0.70625793  0.81533435  0.35859260    -0.13400
C1302       C  0.68487622  0.80007364  0.37523987    -0.09100
C1303       C  0.67117558  0.83303317  0.39028934     0.06500
C1304       C  0.68132272  0.87872916  0.39013038    -0.14100
S1305       S  0.74424463  0.87920427  0.33709413    -0.31100
H1306       H  0.71686854  0.79039879  0.34702343     0.10800
S1307       S  0.64321544  0.81807549  0.41203305    -0.28200
H1308       H  0.67223250  0.90295966  0.40288833     0.08000
H1309       H  0.77670504  0.02995385  0.43121716     0.26400
H1310       H  0.74494911  0.83798662  0.32394801     0.21200
H1311       H  0.62446843  0.79625168  0.39516188     0.26500
H1312       H  0.66634908  0.94096668  0.34977524     0.15400
C1313       C  0.87565070  0.95806465  0.51847654    -0.11900
C1314       C  0.87504562  0.00613384  0.51946068     0.14600
C1315       C  0.87648511  0.02785461  0.54207993     0.01500
C1316       C  0.87584522  0.00115379  0.56298449    -0.16300
C1317       C  0.87494395  0.95280359  0.56200471    -0.11100
C1318       C  0.87672782  0.93137529  0.53920516     0.08300
C1319       C  0.86913643  0.03178215  0.49685159     0.09300
S1320       S  0.87861161  0.08943739  0.54544500    -0.25400
H1321       H  0.87514475  0.01848865  0.58011360     0.19600
S1322       S  0.88030161  0.87020315  0.53483656    -0.31100
H1323       H  0.87470571  0.94094413  0.50127777     0.09900
C1324       C  0.88736922  0.02694906  0.47640862     0.03100
C1325       C  0.87855420  0.04762808  0.45472902    -0.13400
C1326       C  0.85248905  0.07466564  0.45321686    -0.09100
C1327       C  0.83439993  0.07933045  0.47380052     0.06500
C1328       C  0.84284196  0.05796835  0.49516060    -0.14100
S1329       S  0.92254599  0.99623459  0.47814333    -0.31100
H1330       H  0.89241858  0.04361639  0.43907808     0.10800
S1331       S  0.79944980  0.11026064  0.47400979    -0.28200
H1332       H  0.82826900  0.06081422  0.51053345     0.08000
H1333       H  0.90133770  0.86470981  0.55349790     0.26400
H1334       H  0.93170365  0.00459155  0.45453398     0.21200
H1335       H  0.79142484  0.10044832  0.45023027     0.26500
H1336       H  0.89266882  0.09772128  0.52342340     0.15400
C1337       C  0.02608029  0.10374416  0.35470833    -0.11900
C1338       C  0.01187034  0.14566124  0.35953420     0.14600
C1339       C  0.02971307  0.18470913  0.36434888     0.01500
C1340       C  0.06094498  0.18019155  0.36648737    -0.16300
C1341       C  0.07531031  0.13741300  0.36357919    -0.11100
C1342       C  0.05745448  0.09934698  0.35611910     0.08300
C1343       C  0.97887492  0.14599591  0.36355867     0.09300
S1344       S  0.01368630  0.24077573  0.36932199    -0.25400
H1345       H  0.07391514  0.21022775  0.37154976     0.19600
S1346       S  0.07269070  0.04366142  0.34908164    -0.31100
H1347       H  0.01251048  0.07370627  0.35072281     0.09900
C1348       C  0.95760573  0.14275400  0.34484948     0.03100
C1349       C  0.92665664  0.14230450  0.35020292    -0.13400
C1350       C  0.91658978  0.14503565  0.37395481    -0.09100
C1351       C  0.93831340  0.14730758  0.39258761     0.06500
C1352       C  0.96887415  0.14836927  0.38715924    -0.14100
S1353       S  0.96993188  0.14065388  0.31423117    -0.31100
H1354       H  0.91025733  0.14045591  0.33587250     0.10800
S1355       S  0.92891194  0.14586085  0.42383451    -0.28200
H1356       H  0.98519350  0.14990322  0.40159986     0.16000
H1357       H  0.09600092  0.06165203  0.33498410     0.26400
H1358       H  0.94117953  0.13726582  0.30381453     0.21200
H1359       H  0.90709784  0.11163242  0.42067288     0.26500
H1360       H  0.98781173  0.23364140  0.35525885     0.15400
C1361       C  0.71761804  0.40077782  0.74647244    -0.11900
C1362       C  0.74824495  0.41222074  0.74888084     0.14600
C1363       C  0.76484661  0.42182545  0.72808110     0.01500
C1364       C  0.75105731  0.41827080  0.70560209    -0.16300
C1365       C  0.72060187  0.40601685  0.70294879    -0.11100
C1366       C  0.70372900  0.39723886  0.72380967     0.08300
C1367       C  0.76318926  0.40961825  0.77282558     0.09300
S1368       S  0.80395886  0.43815583  0.72895810    -0.25400
H1369       H  0.76440740  0.42532098  0.68991440     0.19600
S1370       S  0.66523706  0.37814958  0.72265214    -0.31100
H1371       H  0.70476826  0.39271807  0.76230366     0.09900
C1372       C  0.75993904  0.44443588  0.79021137     0.03100
C1373       C  0.77491855  0.44039495  0.81237761    -0.13400
C1374       C  0.79331498  0.40238980  0.81753091    -0.09100
C1375       C  0.79760836  0.36873119  0.79965551     0.06500
C1376       C  0.78230578  0.37240513  0.77774523    -0.14100
S1377       S  0.73693714  0.49411581  0.78406825    -0.31100
H1378       H  0.77151076  0.46619810  0.82609442     0.10800
S1379       S  0.82314951  0.32120222  0.80336428    -0.28200
H1380       H  0.78559679  0.34618377  0.76422138     0.08000
H1381       H  0.66891679  0.35003080  0.70241692     0.26400
H1382       H  0.74384822  0.51806785  0.80524770     0.21200
H1383       H  0.84166581  0.34215967  0.82066931     0.26500
H1384       H  0.80308255  0.46012125  0.75131325     0.15400
C1385       C  0.66495526  0.54911515  0.49442223    -0.11900
C1386       C  0.63803563  0.52690597  0.50031441     0.14600
C1387       C  0.61450946  0.52593577  0.48312413     0.01500
C1388       C  0.61871777  0.54633901  0.46053266    -0.16300
C1389       C  0.64558088  0.56920031  0.45488200    -0.11100
C1390       C  0.66903867  0.56989295  0.47209499     0.08300
C1391       C  0.63600915  0.50462613  0.52435842     0.09300
S1392       S  0.57827706  0.50080971  0.48914698    -0.25400
H1393       H  0.60046434  0.54593413  0.44768685     0.19600
S1394       S  0.70518442  0.59595560  0.46673462    -0.31100
H1395       H  0.68320695  0.54978396  0.50731520     0.09900
C1396       C  0.63602194  0.45639671  0.52708046     0.03100
C1397       C  0.63704097  0.43711002  0.55012428    -0.13400
C1398       C  0.63862916  0.46473529  0.57079648    -0.09100
C1399       C  0.63752100  0.51305154  0.56800141     0.06500
C1400       C  0.63656022  0.53232025  0.54496258    -0.14100
S1401       S  0.63727865  0.41922348  0.50124052    -0.31100
H1402       H  0.63832582  0.40010408  0.55195434     0.10800
S1403       S  0.63685167  0.55192206  0.59305088    -0.28200
H1404       H  0.63644072  0.56940837  0.54304886     0.08000
H1405       H  0.70498523  0.59101440  0.44178902     0.26400
H1406       H  0.63374911  0.37747527  0.51358812     0.21200
H1407       H  0.61993646  0.52261988  0.60779809     0.26500
H1408       H  0.57909978  0.50730090  0.51402188     0.15400
C1409       C  0.76976616  0.57082558  0.60647050    -0.11900
C1410       C  0.78609446  0.58206504  0.62729111     0.14600
C1411       C  0.78737639  0.54972019  0.64609695     0.01500
C1412       C  0.77126310  0.50844884  0.64421849    -0.16300
C1413       C  0.75411453  0.49792413  0.62381640    -0.11100
C1414       C  0.75386691  0.52914954  0.60451719     0.08300
C1415       C  0.79837792  0.62956334  0.63002988     0.09300
S1416       S  0.80799160  0.55996499  0.67342977    -0.25400
H1417       H  0.77110525  0.48507220  0.65927487     0.19600
S1418       S  0.73157298  0.51969353  0.57794147    -0.31100
H1419       H  0.76834002  0.59558517  0.59204749     0.09900
C1420       C  0.82253435  0.64585820  0.61619777     0.03100
C1421       C  0.83163420  0.69212441  0.61821731    -0.13400
C1422       C  0.81690770  0.72269108  0.63369860    -0.09100
C1423       C  0.79378149  0.70555684  0.64846595     0.06500
C1424       C  0.78477120  0.65939027  0.64642632    -0.14100
S1425       S  0.84144963  0.60787692  0.59571492    -0.31100
H1426       H  0.84913790  0.70517161  0.60670436     0.10800
S1427       S  0.77547690  0.74233080  0.66993542    -0.28200
H1428       H  0.76645530  0.64661269  0.65720088     0.08000
H1429       H  0.73192495  0.47144221  0.57891434     0.26400
H1430       H  0.86375084  0.63923479  0.58860188     0.21200
H1431       H  0.75827279  0.70790851  0.68102330     0.26500
H1432       H  0.82980182  0.58896792  0.66336585     0.15400
C1433       C  0.72587934  0.16223382  0.65359319    -0.11900
C1434       C  0.72369672  0.13729142  0.63213127     0.14600
C1435       C  0.70784684  0.15667004  0.61268337     0.01500
C1436       C  0.69641919  0.20130554  0.61455453    -0.16300
C1437       C  0.70013497  0.22755755  0.63549049    -0.11100
C1438       C  0.71416440  0.20693497  0.65552295     0.08300
C1439       C  0.74001872  0.09289336  0.62995340     0.09300
S1440       S  0.70289841  0.12736422  0.58449547    -0.25400
H1441       H  0.68588914  0.21652503  0.59895336     0.19600
S1442       S  0.71795330  0.23586919  0.68386982    -0.31100
H1443       H  0.73756353  0.14726405  0.66873758     0.09900
C1444       C  0.76666876  0.08948269  0.61658366     0.03100
C1445       C  0.78167955  0.04715740  0.61513609    -0.13400
C1446       C  0.77107693  0.00787756  0.62713620    -0.09100
C1447       C  0.74445864  0.01178938  0.64083768     0.06500
C1448       C  0.72911428  0.05387849  0.64178292    -0.14100
S1449       S  0.78237220  0.13959515  0.60219506    -0.31100
H1450       H  0.80220974  0.04491722  0.60493955     0.10800
S1451       S  0.72997151  0.96574119  0.65895875    -0.28200
H1452       H  0.70886605  0.05658324  0.65233704     0.08000
H1453       H  0.69177410  0.26252460  0.68134748     0.26400
H1454       H  0.80617854  0.11700068  0.59070471     0.21200
H1455       H  0.75786638  0.95641667  0.66986402     0.26500
H1456       H  0.70404672  0.08246723  0.59370266     0.15400
C1457       C  0.46770460  0.39152127  0.66794088    -0.11900
C1458       C  0.48723372  0.36997922  0.65179243     0.14600
C1459       C  0.47481509  0.34623601  0.63208768     0.01500
C1460       C  0.44367122  0.34557212  0.62859818    -0.16300
C1461       C  0.42389021  0.36903832  0.64395087    -0.11100
C1462       C  0.43634120  0.39099606  0.66441692     0.08300
C1463       C  0.52042434  0.37464776  0.65487639     0.09300
S1464       S  0.49754614  0.31776386  0.60998392    -0.25400
H1465       H  0.43504437  0.32813320  0.61288004     0.19600
S1466       S  0.41379151  0.41876212  0.68676708    -0.31100
H1467       H  0.47703351  0.40933256  0.68330259     0.09900
C1468       C  0.53508470  0.41628050  0.64940795     0.03100
C1469       C  0.56659224  0.41771028  0.64851267    -0.13400
C1470       C  0.58411033  0.37825595  0.65271749    -0.09100
C1471       C  0.56945707  0.33733314  0.65990219     0.06500
C1472       C  0.53780915  0.33594887  0.66079894    -0.14100
S1473       S  0.51363381  0.46668349  0.64134723    -0.31100
H1474       H  0.57752479  0.44915259  0.64290623     0.10800
S1475       S  0.59075073  0.28677593  0.66793248    -0.28200
H1476       H  0.52644249  0.30415647  0.66522258     0.08000
H1477       H  0.39230314  0.38325507  0.68755367     0.26400
H1478       H  0.53807364  0.49723194  0.63986509     0.21200
H1479       H  0.56639468  0.26081408  0.67648220     0.26500
H1480       H  0.52102014  0.35013513  0.61012894     0.15400
C1481       C  0.75147922  0.28206919  0.47381092    -0.11900
C1482       C  0.74177508  0.25216255  0.49171597     0.14600
C1483       C  0.73806102  0.20491541  0.48640965     0.01500
C1484       C  0.74559731  0.18845676  0.46364257    -0.16300
C1485       C  0.75786821  0.21792438  0.44647091    -0.11100
C1486       C  0.75912778  0.26557001  0.45127955     0.08300
C1487       C  0.73328166  0.27232715  0.51494866     0.09300
S1488       S  0.72525739  0.16372714  0.50818384    -0.25400
H1489       H  0.74374174  0.15204940  0.45988205     0.19600
S1490       S  0.76936777  0.30724119  0.42907873    -0.31100
H1491       H  0.75288231  0.31864961  0.47738995     0.09900
C1492       C  0.75482859  0.29013166  0.53105922     0.03100
C1493       C  0.74529576  0.31093976  0.55237491    -0.13400
C1494       C  0.71461002  0.31396325  0.55800353    -0.09100
C1495       C  0.69326217  0.29454515  0.54186441     0.06500
C1496       C  0.70283435  0.27506455  0.52047454    -0.14100
S1497       S  0.79442182  0.28536026  0.52468310    -0.31100
H1498       H  0.76180691  0.32490032  0.56468409     0.10800
S1499       S  0.65360237  0.29036622  0.54774073    -0.28200
H1500       H  0.68635091  0.26100502  0.50812108     0.08000
H1501       H  0.75778760  0.28177531  0.40974663     0.26400
H1502       H  0.80487508  0.30543157  0.54604412     0.21200
H1503       H  0.65794565  0.27025820  0.57034192     0.26500
H1504       H  0.73641841  0.18698319  0.52840005     0.15400
loop_ 
_geom_bond_atom_site_label_1 
_geom_bond_atom_site_label_2 
_geom_bond_distance 
_geom_bond_site_symmetry_2 
_ccdc_geom_bond_type 
O1           C16   1.262       .  A
O1           Al9   1.906       .  S
C2           O12   1.267       .  A
C2            O3   1.267       .  A
C2         C1398   1.496       .  S
O3           Al5   1.928       .  S
O4            C6   1.254       .  A
O4           Al5   1.875       .  S
Al5          O13   1.905       .  S
Al5          O15   1.917       .  S
Al5          O14   1.781       .  S
C6           O19   1.266       .  A
C6         C1494   1.487       .  S
O7           C17   1.263       .  A
O7           Al9   1.924       .  S
O8           C21   1.274       .  A
O8          Al18   1.934       .  S
Al9          O22   1.923       .  S
Al9          O19   1.937       .  S
Al9          O14   1.783       .  S
O10          C17   1.258       .  A
O10         Al18   1.905       .  S
O11          C20   1.265       .  A
O11         Al18   1.934       .  S
O12         Al18   1.921       .  S
O13          C20   1.260       .  A
O14         Al18   1.784       .  S
O15          C16   1.264       .  A
C16        C1437   1.487       .  S
C17        C1413   1.477       .  S
C20        C1470   1.495       .  S
C21          O22   1.270       .  A
C21        C1365   1.495       .  S
O23          C38   1.260       .  A
O23         Al31   1.890       .  S
C24          O34   1.261       .  A
C24          O25   1.272       .  A
C24        C1326   1.487       .  S
O25         Al27   1.954       .  S
O26          C28   1.257       .  A
O26         Al27   1.885       .  S
Al27         O35   1.917       .  S
Al27         O37   1.950       .  S
Al27         O36   1.785       .  S
C28          O41   1.266       .  A
C28        C1293   1.492       .  S
O29          C39   1.264       .  A
O29         Al31   1.924       .  S
O30          C43   1.265       .  A
O30         Al40   1.902       .  S
Al31         O44   1.935       .  S
Al31         O41   1.943       .  S
Al31         O36   1.782       .  S
O32          C39   1.261       .  A
O32         Al40   1.909       .  S
O33          C42   1.260       .  A
O33         Al40   1.912       .  S
O34         Al40   1.883       .  S
O35          C42   1.261       .  A
O36         Al40   1.783       .  S
O37          C38   1.270       .  A
C38        C1245   1.481       .  S
C39        C1485   1.476       .  S
C42        C1350   1.491       .  S
C43          O44   1.269       .  A
C43        C1269   1.485       .  S
O45          C60   1.262       .  A
O45         Al53   1.870       .  S
C46          O56   1.257       .  A
C46          O47   1.270       .  A
C46        C1206   1.477       .  S
O47         Al49   1.950       .  S
O48          C50   1.254       .  A
O48         Al49   1.891       .  S
Al49         O57   1.918       .  S
Al49         O59   1.957       .  S
Al49         O58   1.790       .  S
C50          O63   1.257       .  A
C50        C1173   1.480       .  S
O51          C61   1.262       .  A
O51         Al53   1.902       .  S
O52          C65   1.265       .  A
O52         Al62   1.912       .  S
Al53         O66   1.920       .  S
Al53         O63   1.910       .  S
Al53         O58   1.783       .  S
O54          C61   1.261       .  A
O54         Al62   1.909       .  S
O55          C64   1.258       .  A
O55         Al62   1.898       .  S
O56         Al62   1.866       .  S
O57          C64   1.260       .  A
O58         Al62   1.785       .  S
O59          C60   1.274       .  A
C60        C1125   1.487       .  S
C61        C1230   1.474       .  S
C64        C1461   1.503       .  S
C65          O66   1.264       .  A
C65        C1158   1.494       .  S
O67          C82   1.262       .  A
O67         Al75   1.901       .  S
C68          O78   1.263       .  A
C68          O69   1.266       .  A
C68        C1053   1.495       .  S
O69         Al71   1.923       .  S
O70          C72   1.258       .  A
O70         Al71   1.894       .  S
Al71         O79   1.902       .  S
Al71         O81   1.920       .  S
Al71         O80   1.785       .  S
C72          O85   1.262       .  A
C72        C1221   1.465       .  S
O73          C83   1.262       .  A
O73         Al75   1.919       .  S
O74          C87   1.271       .  A
O74         Al84   1.923       .  S
Al75         O88   1.910       .  S
Al75         O85   1.907       .  S
Al75         O80   1.778       .  S
O76          C83   1.258       .  A
O76         Al84   1.902       .  S
O77          C86   1.264       .  A
O77         Al84   1.934       .  S
O78         Al84   1.906       .  S
O79          C86   1.262       .  A
O80         Al84   1.783       .  S
O81          C82   1.264       .  A
C82        C1110   1.491       .  S
C83        C1077   1.475       .  S
C86        C1341   1.500       .  S
C87          O88   1.266       .  A
C87        C1029   1.487       .  S
O89         C104   1.260       .  A
O89         Al97   1.906       .  S
C90         O100   1.268       .  A
C90          O91   1.256       .  A
C90        C1062   1.487       .  S
O91         Al93   1.869       .  S
O92          C94   1.261       .  A
O92         Al93   1.901       .  S
Al93        O101   1.890       .  S
Al93        O103   1.903       .  S
Al93        O102   1.791       .  S
C94         O107   1.263       .  A
C94        C1005   1.466       .  S
O95         C105   1.255       .  A
O95         Al97   1.910       .  S
O96         C109   1.272       .  A
O96        Al106   1.948       .  S
Al97        O110   1.879       .  S
Al97        O107   1.901       .  S
Al97        O102   1.793       .  S
O98         C105   1.256       .  A
O98        Al106   1.903       .  S
O99         C108   1.260       .  A
O99        Al106   1.914       .  S
O100       Al106   1.944       .  S
O101        C108   1.257       .  A
O102       Al106   1.794       .  S
O103        C104   1.258       .  A
C104       C1182   1.480       .  S
C105       C1149   1.474       .  S
C108        C990   1.481       .  S
C109        O110   1.262       .  A
C109        C957   1.478       .  S
O111        C126   1.268       .  A
O111       Al119   1.913       .  S
C112        O122   1.265       .  A
C112        O113   1.265       .  A
C112       C1197   1.496       .  S
O113       Al115   1.918       .  S
O114        C116   1.258       .  A
O114       Al115   1.898       .  S
Al115       O123   1.938       .  S
Al115       O125   1.929       .  S
Al115       O124   1.785       .  S
C116        O129   1.264       .  A
C116       C1101   1.486       .  S
O117        C127   1.262       .  A
O117       Al119   1.916       .  S
O118        C131   1.262       .  A
O118       Al128   1.906       .  S
Al119       O132   1.912       .  S
Al119       O129   1.927       .  S
Al119       O124   1.783       .  S
O120        C127   1.256       .  A
O120       Al128   1.874       .  S
O121        C130   1.258       .  A
O121       Al128   1.899       .  S
O122       Al128   1.921       .  S
O123        C130   1.266       .  A
O124       Al128   1.781       .  S
O125        C126   1.274       .  A
C126        C918   1.490       .  S
C127       C1014   1.471       .  S
C130        C933   1.498       .  S
C131        O132   1.263       .  A
C131       C1086   1.500       .  S
O133        C148   1.263       .  A
O133       Al141   1.874       .  S
C134        O144   1.258       .  A
C134        O135   1.272       .  A
C134       C1317   1.495       .  S
O135       Al137   1.947       .  S
O136        C138   1.254       .  A
O136       Al137   1.887       .  S
Al137       O145   1.903       .  S
Al137       O147   1.945       .  S
Al137       O146   1.790       .  S
C138        O151   1.258       .  A
C138       C1446   1.493   1_565  S
O139        C149   1.264       .  A
O139       Al141   1.914       .  S
O140        C153   1.268       .  A
O140       Al150   1.917       .  S
Al141       O154   1.924       .  S
Al141       O151   1.921       .  S
Al141       O146   1.785       .  S
O142        C149   1.259       .  A
O142       Al150   1.892       .  S
O143        C152   1.259       .  A
O143       Al150   1.903       .  S
O144       Al150   1.872       .  S
O145        C152   1.256       .  A
O146       Al150   1.785       .  S
O147        C148   1.271       .  A
C148        C861   1.493       .  S
C149        C885   1.463       .  S
C152        C981   1.497       .  S
C153        O154   1.265       .  A
C153       C1422   1.489       .  S
O155        C170   1.266       .  A
O155       Al163   1.924       .  S
C156        O166   1.270       .  A
C156        O157   1.260       .  A
C156       C1389   1.489       .  S
O157       Al159   1.892       .  S
O158        C160   1.257       .  A
O158       Al159   1.887       .  S
Al159       O167   1.905       .  S
Al159       O169   1.914       .  S
Al159       O168   1.788       .  S
C160        O173   1.264       .  A
C160        C894   1.471       .  S
O161        C171   1.261       .  A
O161       Al163   1.929       .  S
O162        C175   1.272       .  A
O162       Al172   1.951       .  S
Al163       O176   1.887       .  S
Al163       O173   1.913       .  S
Al163       O168   1.790       .  S
O164        C171   1.254       .  A
O164       Al172   1.884       .  S
O165        C174   1.260       .  A
O165       Al172   1.914       .  S
O166       Al172   1.951       .  S
O167        C174   1.257       .  A
O168       Al172   1.789       .  S
O169        C170   1.266       .  A
C170       C1302   1.490       .  S
C171       C1278   1.487       .  S
C174        C942   1.481       .  S
C175        O176   1.262       .  A
C175        C837   1.494       .  S
O177        C192   1.263       .  A
O177       Al185   1.907       .  S
C178        O188   1.269       .  A
C178        O179   1.260       .  A
C178        C726   1.494       .  S
O179       Al181   1.887       .  S
O180        C182   1.260       .  A
O180       Al181   1.903       .  S
Al181       O189   1.900       .  S
Al181       O191   1.912       .  S
Al181       O190   1.789       .  S
C182        O195   1.266       .  A
C182        C813   1.477       .  S
O183        C193   1.258       .  A
O183       Al185   1.914       .  S
O184        C197   1.272       .  A
O184       Al194   1.952       .  S
Al185       O198   1.896       .  S
Al185       O195   1.924       .  S
Al185       O190   1.786       .  S
O186        C193   1.255       .  A
O186       Al194   1.894       .  S
O187        C196   1.260       .  A
O187       Al194   1.915       .  S
O188       Al194   1.936       .  S
O189        C196   1.258       .  A
O190       Al194   1.789       .  S
O191        C192   1.265       .  A
C192        C765   1.481       .  S
C193        C741   1.479       .  S
C196        C789   1.484       .  S
C197        O198   1.263       .  A
C197       C1374   1.485       .  S
O199        C214   1.260       .  A
O199       Al207   1.884       .  S
C200        O210   1.257       .  A
C200        O201   1.272       .  A
C200        C669   1.476       .  S
O201       Al203   1.956       .  S
O202        C204   1.254       .  A
O202       Al203   1.879       .  S
Al203       O211   1.915       .  S
Al203       O213   1.954       .  S
Al203       O212   1.788       .  S
C204        O217   1.265       .  A
C204        C645   1.491       .  S
O205        C215   1.264       .  A
O205       Al207   1.915       .  S
O206        C219   1.267       .  A
O206       Al216   1.904       .  S
Al207       O220   1.932       .  S
Al207       O217   1.942       .  S
Al207       O212   1.784       .  S
O208        C215   1.258       .  A
O208       Al216   1.893       .  S
O209        C218   1.259       .  A
O209       Al216   1.907       .  S
O210       Al216   1.870       .  S
O211        C218   1.260       .  A
O212       Al216   1.786       .  S
O213        C214   1.272       .  A
C214       C1254   1.486       .  S
C215        C822   1.475       .  S
C218        C693   1.489       .  S
C219        O220   1.269       .  A
C219        C621   1.483       .  S
O221        C236   1.265       .  A
O221       Al229   1.902       .  S
C222        O232   1.265       .  A
C222        O223   1.267       .  A
C222        C582   1.486       .  S
O223       Al225   1.920       .  S
O224        C226   1.256       .  A
O224       Al225   1.904       .  S
Al225       O233   1.928       .  S
Al225       O235   1.945       .  S
Al225       O234   1.788       .  S
C226        O239   1.263       .  A
C226        C549   1.490       .  S
O227        C237   1.259       .  A
O227       Al229   1.901       .  S
O228        C241   1.261       .  A
O228       Al238   1.911       .  S
Al229       O242   1.912       .  S
Al229       O239   1.925       .  S
Al229       O234   1.782       .  S
O230        C237   1.252       .  A
O230       Al238   1.866       .  S
O231        C240   1.257       .  A
O231       Al238   1.900       .  S
O232       Al238   1.925       .  S
O233        C240   1.261       .  A
O234       Al238   1.788       .  S
O235        C236   1.277       .  A
C236       C1134   1.498       .  S
C237        C597   1.472       .  S
C240        C798   1.491       .  S
C241        O242   1.264       .  A
C241        C534   1.501       .  S
O243        C258   1.263       .  A
O243       Al251   1.905       .  S
C244        O254   1.274       .  A
C244        O245   1.260       .  A
C244        C453   1.500       .  S
O245       Al247   1.866       .  S
O246        C248   1.259       .  A
O246       Al247   1.892       .  S
Al247       O255   1.889       .  S
Al247       O257   1.907       .  S
Al247       O256   1.785       .  S
C248        O261   1.261       .  A
C248        C606   1.463       .  S
O249        C259   1.256       .  A
O249       Al251   1.907       .  S
O250        C263   1.277       .  A
O250       Al260   1.975       .  S
Al251       O264   1.868       .  S
Al251       O261   1.901       .  S
Al251       O256   1.783       .  S
O252        C259   1.251       .  A
O252       Al260   1.878       .  S
O253        C262   1.259       .  A
O253       Al260   1.913       .  S
O254       Al260   1.961       .  S
O255        C262   1.256       .  A
O256       Al260   1.787       .  S
O257        C258   1.266       .  A
C258        C501   1.471       .  S
C259        C486   1.475       .  S
C262        C702   1.489       .  S
C263        O264   1.258       .  A
C263       C1038   1.495       .  S
O265        C280   1.268       .  A
O265       Al273   1.927       .  S
C266        O276   1.272       .  A
C266        O267   1.258       .  A
C266        C462   1.480       .  S
O267       Al269   1.877       .  S
O268        C270   1.258       .  A
O268       Al269   1.904       .  S
Al269       O277   1.919       .  S
Al269       O279   1.907       .  S
Al269       O278   1.789       .  S
C270        O283   1.260       .  A
C270        C429   1.463       .  S
O271        C281   1.264       .  A
O271       Al273   1.941       .  S
O272        C285   1.271       .  A
O272       Al282   1.953       .  S
Al273       O286   1.873       .  S
Al273       O283   1.905       .  S
Al273       O278   1.785       .  S
O274        C281   1.256       .  A
O274       Al282   1.884       .  S
O275        C284   1.260       .  A
O275       Al282   1.914       .  S
O276       Al282   1.959       .  S
O277        C284   1.262       .  A
O278       Al282   1.787       .  S
O279        C280   1.265       .  A
C280        C558   1.483       .  S
C281        C525   1.489       .  S
C284        C414   1.498       .  S
C285        O286   1.257       .  A
C285        C966   1.488       .  S
O287        C302   1.263       .  A
O287       Al295   1.872       .  S
C288        O298   1.256       .  A
C288        O289   1.275       .  A
C288        C573   1.493       .  S
O289       Al291   1.963       .  S
O290        C292   1.254       .  A
O290       Al291   1.891       .  S
Al291       O299   1.918       .  S
Al291       O301   1.976       .  S
Al291       O300   1.783       .  S
C292        O305   1.256       .  A
C292        C510   1.479       .  S
O293        C303   1.265       .  A
O293       Al295   1.913       .  S
O294        C307   1.262       .  A
O294       Al304   1.898       .  S
Al295       O308   1.917       .  S
Al295       O305   1.908       .  S
Al295       O300   1.781       .  S
O296        C303   1.262       .  A
O296       Al304   1.899       .  S
O297        C306   1.257       .  A
O297       Al304   1.891       .  S
O298       Al304   1.864       .  S
O299        C306   1.260       .  A
O300       Al304   1.780       .  S
O301        C302   1.278       .  A
C302        C909   1.507       .  S
C303        C438   1.479       .  S
C306        C381   1.501       .  S
C307        O308   1.264       .  A
C307        C477   1.472       .  S
O309        C324   1.261       .  A
O309       Al317   1.876       .  S
C310        O320   1.257       .  A
C310        O311   1.268       .  A
C310        C678   1.482       .  S
O311       Al313   1.937       .  S
O312        C314   1.255       .  A
O312       Al313   1.887       .  S
Al313       O321   1.911       .  S
Al313       O323   1.948       .  S
Al313       O322   1.790       .  S
C314        O327   1.259       .  A
C314        C774   1.485       .  S
O315        C325   1.262       .  A
O315       Al317   1.899       .  S
O316        C329   1.265       .  A
O316       Al326   1.910       .  S
Al317       O330   1.912       .  S
Al317       O327   1.921       .  S
Al317       O322   1.788       .  S
O318        C325   1.259       .  A
O318       Al326   1.900       .  S
O319        C328   1.260       .  A
O319       Al326   1.908       .  S
O320       Al326   1.870       .  S
O321        C328   1.260       .  A
O322       Al326   1.787       .  S
O323        C324   1.271       .  A
C324        C870   1.487       .  S
C325        C366   1.459       .  S
C328        C405   1.489       .  S
C329        O330   1.263       .  A
C329        C750   1.480       .  S
O331        C346   1.265       .  A
O331       Al339   1.912       .  S
C332        O342   1.263       .  A
C332        O333   1.263       .  A
C332        C717   1.483       .  S
O333       Al335   1.926       .  S
O334        C336   1.257       .  A
O334       Al335   1.877       .  S
Al335       O343   1.906       .  S
Al335       O345   1.914       .  S
Al335       O344   1.790       .  S
C336        O349   1.262       .  A
C336        C357   1.475       .  S
O337        C347   1.263       .  A
O337       Al339   1.927       .  S
O338        C351   1.272       .  A
O338       Al348   1.935       .  S
Al339       O352   1.912       .  S
Al339       O349   1.916       .  S
Al339       O344   1.785       .  S
O340        C347   1.258       .  A
O340       Al348   1.899       .  S
O341        C350   1.264       .  A
O341       Al348   1.921       .  S
O342       Al348   1.908       .  S
O343        C350   1.261       .  A
O344       Al348   1.782       .  S
O345        C346   1.262       .  A
C346        C654   1.500       .  S
C347        C630   1.486       .  S
C350        C390   1.491       .  S
C351        O352   1.266       .  A
C351        C846   1.492       .  S
C353        C354   1.403       .  A
C353        C358   1.401       .  A
C353        H363   1.084       .  S
C354        C359   1.473   1_554  S
C354        C355   1.408       .  A
C355        C356   1.393       .  A
C355        S360   1.805       .  S
C356        C357   1.405       .  A
C356        H361   1.084       .  S
C357        C358   1.414       .  A
C358        S362   1.802       .  S
C359        C364   1.409       .  A
C359        C368   1.402       .  A
S360        H376   1.405       .  S
S362        H373   1.407       .  S
C364        C365   1.399       .  A
C364        S369   1.808       .  S
C365        C366   1.401       .  A
C365        H370   1.083       .  S
C366        C367   1.409       .  A
C367        C368   1.398       .  A
C367        S371   1.805       .  S
C368        H372   1.084   1_556  S
S369        H374   1.407       .  S
S371        H375   1.406       .  S
C377        C378   1.406       .  A
C377        C382   1.408       .  A
C377        H387   1.084       .  S
C378        C383   1.491   1_455  S
C378        C379   1.410       .  A
C379        C380   1.398       .  A
C379        S384   1.805       .  S
C380        C381   1.411       .  A
C380        H385   1.083       .  S
C381        C382   1.420       .  A
C382        S386   1.800       .  S
C383        C388   1.410       .  A
C383        C392   1.406       .  A
S384        H400   1.406   1_455  S
S386        H397   1.408       .  S
C388        C389   1.403       .  A
C388        S393   1.808       .  S
C389        C390   1.408       .  A
C389        H394   1.082       .  S
C390        C391   1.416       .  A
C391        C392   1.406       .  A
C391        S395   1.801       .  S
C392        H396   1.084       .  S
S393        H398   1.407       .  S
S395        H399   1.407       .  S
C401        C402   1.403       .  A
C401        C406   1.406       .  A
C401        H411   1.084       .  S
C402        C407   1.493       .  S
C402        C403   1.414       .  A
C403        C404   1.404       .  A
C403        S408   1.803       .  S
C404        C405   1.405       .  A
C404        H409   1.084       .  S
C405        C406   1.418       .  A
C406        S410   1.800       .  S
C407        C412   1.409       .  A
C407        C416   1.404       .  A
S408        H424   1.405       .  S
S410        H421   1.407       .  S
C412        C413   1.405       .  A
C412        S417   1.808       .  S
C413        C414   1.409       .  A
C413        H418   1.082       .  S
C414        C415   1.420       .  A
C415        C416   1.409       .  A
C415        S419   1.802       .  S
C416        H420   1.083       .  S
S417        H422   1.407       .  S
S419        H423   1.407       .  S
C425        C426   1.401       .  A
C425        C430   1.397       .  A
C425        H435   1.084       .  S
C426        C431   1.475   1_556  S
C426        C427   1.413       .  A
C427        C428   1.397       .  A
C427        S432   1.805   1_556  S
C428        C429   1.399       .  A
C428        H433   1.082       .  S
C429        C430   1.412       .  A
C430        S434   1.802       .  S
C431        C436   1.405       .  A
C431        C440   1.404       .  A
S432        H448   1.406       .  S
S434        H445   1.405       .  S
C436        C437   1.396       .  A
C436        S441   1.808   1_554  S
C437        C438   1.408       .  A
C437        H442   1.083       .  S
C438        C439   1.414       .  A
C439        C440   1.400       .  A
C439        S443   1.800       .  S
C440        H444   1.084       .  S
S441        H446   1.407   1_556  S
S443        H447   1.407       .  S
C449        C450   1.408       .  A
C449        C454   1.411       .  A
C449        H459   1.083   1_545  S
C450        C455   1.491   1_554  S
C450        C451   1.409       .  A
C451        C452   1.396       .  A
C451        S456   1.806   1_554  S
C452        C453   1.412       .  A
C452        H457   1.083       .  S
C453        C454   1.418       .  A
C454        S458   1.800   1_545  S
C455        C460   1.412   1_545  A
C455        C464   1.401   1_545  A
S456        H472   1.406       .  S
S458        H469   1.408   1_565  S
C460        C461   1.412       .  A
C460        S465   1.804   1_565  S
C461        C462   1.405       .  A
C461        H466   1.082       .  S
C462        C463   1.417       .  A
C463        C464   1.398       .  A
C463        S467   1.808       .  S
C464        H468   1.084       .  S
S465        H470   1.407   1_545  S
S467        H471   1.398       .  S
C473        C474   1.401       .  A
C473        C478   1.396       .  A
C473        H483   1.084       .  S
C474        C479   1.474       .  S
C474        C475   1.410       .  A
C475        C476   1.400       .  A
C475        S480   1.805       .  S
C476        C477   1.405       .  A
C476        H481   1.084       .  S
C477        C478   1.412       .  A
C478        S482   1.803       .  S
C479        C484   1.406       .  A
C479        C488   1.401       .  A
S480        H496   1.403       .  S
S482        H493   1.407       .  S
C484        C485   1.400   1_565  A
C484        S489   1.806       .  S
C485        C486   1.405       .  A
C485        H490   1.082       .  S
C486        C487   1.413   1_545  A
C487        C488   1.402       .  A
C487        S491   1.810       .  S
C488        H492   1.083       .  S
S489        H494   1.407   1_565  S
S491        H495   1.407       .  S
C497        C498   1.402       .  A
C497        C502   1.399       .  A
C497        H507   1.084       .  S
C498        C503   1.477       .  S
C498        C499   1.411       .  A
C499        C500   1.399       .  A
C499        S504   1.804       .  S
C500        C501   1.404       .  A
C500        H505   1.084       .  S
C501        C502   1.413       .  A
C502        S506   1.805       .  S
C503        C508   1.409       .  A
C503        C512   1.398       .  A
S504        H520   1.405       .  S
S506        H517   1.407       .  S
C508        C509   1.403       .  A
C508        S513   1.806       .  S
C509        C510   1.404       .  A
C509        H514   1.083       .  S
C510        C511   1.418       .  A
C511        C512   1.401       .  A
C511        S515   1.808       .  S
C512        H516   1.083       .  S
S513        H518   1.407       .  S
S515        H519   1.407       .  S
C521        C522   1.405       .  A
C521        C526   1.408       .  A
C521        H531   1.084       .  S
C522        C527   1.491       .  S
C522        C523   1.413       .  A
C523        C524   1.400       .  A
C523        S528   1.804       .  S
C524        C525   1.405   1_545  A
C524        H529   1.083       .  S
C525        C526   1.417   1_565  A
C526        S530   1.799   1_545  S
C527        C532   1.410       .  A
C527        C536   1.401       .  A
S528        H544   1.405       .  S
S530        H541   1.406       .  S
C532        C533   1.406       .  A
C532        S537   1.807       .  S
C533        C534   1.409       .  A
C533        H538   1.082       .  S
C534        C535   1.423       .  A
C535        C536   1.406       .  A
C535        S539   1.802       .  S
C536        H540   1.084       .  S
S537        H542   1.406       .  S
S539        H543   1.408       .  S
C545        C546   1.400       .  A
C545        C550   1.395       .  A
C545        H555   1.084       .  S
C546        C551   1.490       .  S
C546        C547   1.414       .  A
C547        C548   1.408       .  A
C547        S552   1.802       .  S
C548        C549   1.408       .  A
C548        H553   1.083       .  S
C549        C550   1.420       .  A
C550        S554   1.802       .  S
C551        C556   1.413       .  A
C551        C560   1.403       .  A
S552        H568   1.406       .  S
S554        H565   1.397       .  S
C556        C557   1.403       .  A
C556        S561   1.807       .  S
C557        C558   1.402       .  A
C557        H562   1.083       .  S
C558        C559   1.417       .  A
C559        C560   1.404       .  A
C559        S563   1.799       .  S
C560        H564   1.084       .  S
S561        H566   1.407       .  S
S563        H567   1.407       .  S
C569        C570   1.399       .  A
C569        C574   1.405       .  A
C569        H579   1.083       .  S
C570        C575   1.489   1_554  S
C570        C571   1.414       .  A
C571        C572   1.405       .  A
C571        S576   1.800       .  S
C572        C573   1.404       .  A
C572        H577   1.084       .  S
C573        C574   1.422       .  A
C574        S578   1.810       .  S
C575        C580   1.410       .  A
C575        C584   1.400       .  A
S576        H592   1.405       .  S
S578        H589   1.407       .  S
C580        C581   1.411       .  A
C580        S585   1.804       .  S
C581        C582   1.407       .  A
C581        H586   1.082       .  S
C582        C583   1.417       .  A
C583        C584   1.400       .  A
C583        S587   1.803       .  S
C584        H588   1.084       .  S
S585        H590   1.407       .  S
S587        H591   1.402       .  S
C593        C594   1.398       .  A
C593        C598   1.398   1_554  A
C593        H603   1.084       .  S
C594        C599   1.466       .  S
C594        C595   1.409   1_554  A
C595        C596   1.394       .  A
C595        S600   1.805       .  S
C596        C597   1.404       .  A
C596        H601   1.084       .  S
C597        C598   1.415       .  A
C598        S602   1.806       .  S
C599        C604   1.404       .  A
C599        C608   1.403       .  A
S600        H616   1.405   1_556  S
S602        H613   1.406   1_556  S
C604        C605   1.393       .  A
C604        S609   1.808       .  S
C605        C606   1.405       .  A
C605        H610   1.084       .  S
C606        C607   1.410       .  A
C607        C608   1.398       .  A
C607        S611   1.803       .  S
C608        H612   1.084       .  S
S609        H614   1.406       .  S
S611        H615   1.407       .  S
C617        C618   1.406       .  A
C617        C622   1.401       .  A
C617        H627   1.084       .  S
C618        C623   1.489       .  S
C618        C619   1.414       .  A
C619        C620   1.405       .  A
C619        S624   1.806       .  S
C620        C621   1.407       .  A
C620        H625   1.084       .  S
C621        C622   1.412       .  A
C622        S626   1.804       .  S
C623        C628   1.412       .  A
C623        C632   1.400       .  A
S624        H640   1.404       .  S
S626        H637   1.407       .  S
C628        C629   1.411       .  A
C628        S633   1.804       .  S
C629        C630   1.406       .  A
C629        H634   1.082       .  S
C630        C631   1.414       .  A
C631        C632   1.400       .  A
C631        S635   1.807       .  S
C632        H636   1.083       .  S
S633        H638   1.407       .  S
S635        H639   1.406       .  S
C641        C642   1.401       .  A
C641        C646   1.403       .  A
C641        H651   1.083       .  S
C642        C647   1.489       .  S
C642        C643   1.413       .  A
C643        C644   1.405   1_565  A
C643        S648   1.803       .  S
C644        C645   1.407       .  A
C644        H649   1.084       .  S
C645        C646   1.418   1_545  A
C646        S650   1.808       .  S
C647        C652   1.409       .  A
C647        C656   1.400       .  A
S648        H664   1.405       .  S
S650        H661   1.407       .  S
C652        C653   1.405       .  A
C652        S657   1.807       .  S
C653        C654   1.409       .  A
C653        H658   1.082       .  S
C654        C655   1.424       .  A
C655        C656   1.404       .  A
C655        S659   1.802       .  S
C656        H660   1.084       .  S
S657        H662   1.406       .  S
S659        H663   1.406       .  S
C665        C666   1.403       .  A
C665        C670   1.395       .  A
C665        H675   1.084       .  S
C666        C671   1.495   1_544  S
C666        C667   1.420       .  A
C667        C668   1.406       .  A
C667        S672   1.803       .  S
C668        C669   1.402       .  A
C668        H673   1.082       .  S
C669        C670   1.415       .  A
C670        S674   1.807       .  S
C671        C676   1.419   1_565  A
C671        C680   1.403       .  A
S672        H688   1.406   1_554  S
S674        H685   1.401       .  S
C676        C677   1.407   1_545  A
C676        S681   1.809       .  S
C677        C678   1.403       .  A
C677        H682   1.083   1_565  S
C678        C679   1.414       .  A
C679        C680   1.398       .  A
C679        S683   1.804       .  S
C680        H684   1.083   1_556  S
S681        H686   1.407       .  S
S683        H687   1.408       .  S
C689        C690   1.399       .  A
C689        C694   1.396       .  A
C689        H699   1.084       .  S
C690        C695   1.486       .  S
C690        C691   1.413       .  A
C691        C692   1.408       .  A
C691        S696   1.802       .  S
C692        C693   1.407       .  A
C692        H697   1.083       .  S
C693        C694   1.418       .  A
C694        S698   1.802       .  S
C695        C700   1.408       .  A
C695        C704   1.403       .  A
S696        H712   1.405       .  S
S698        H709   1.403       .  S
C700        C701   1.402       .  A
C700        S705   1.807       .  S
C701        C702   1.408       .  A
C701        H706   1.083       .  S
C702        C703   1.418       .  A
C703        C704   1.405       .  A
C703        S707   1.800       .  S
C704        H708   1.084       .  S
S705        H710   1.407       .  S
S707        H711   1.407       .  S
C713        C714   1.406       .  A
C713        C718   1.407       .  A
C713        H723   1.083       .  S
C714        C719   1.487   1_554  S
C714        C715   1.413       .  A
C715        C716   1.400       .  A
C715        S720   1.807       .  S
C716        C717   1.404       .  A
C716        H721   1.083       .  S
C717        C718   1.415       .  A
C718        S722   1.804       .  S
C719        C724   1.409       .  A
C719        C728   1.401       .  A
S720        H736   1.403       .  S
S722        H733   1.406       .  S
C724        C725   1.407       .  A
C724        S729   1.806       .  S
C725        C726   1.408       .  A
C725        H730   1.082       .  S
C726        C727   1.419       .  A
C727        C728   1.406       .  A
C727        S731   1.808       .  S
C728        H732   1.083   1_556  S
S729        H734   1.407       .  S
S731        H735   1.407       .  S
C737        C738   1.405       .  A
C737        C742   1.402       .  A
C737        H747   1.085       .  S
C738        C743   1.484       .  S
C738        C739   1.412       .  A
C739        C740   1.400       .  A
C739        S744   1.803       .  S
C740        C741   1.405       .  A
C740        H745   1.086       .  S
C741        C742   1.414       .  A
C742        S746   1.803       .  S
C743        C748   1.409       .  A
C743        C752   1.403       .  A
S744        H760   1.406       .  S
S746        H757   1.407       .  S
C748        C749   1.406       .  A
C748        S753   1.805       .  S
C749        C750   1.406       .  A
C749        H754   1.083       .  S
C750        C751   1.412       .  A
C751        C752   1.404       .  A
C751        S755   1.808       .  S
C752        H756   1.083       .  S
S753        H758   1.407       .  S
S755        H759   1.407       .  S
C761        C762   1.401       .  A
C761        C766   1.396       .  A
C761        H771   1.085       .  S
C762        C767   1.480       .  S
C762        C763   1.414       .  A
C763        C764   1.404       .  A
C763        S768   1.807       .  S
C764        C765   1.406       .  A
C764        H769   1.084       .  S
C765        C766   1.415       .  A
C766        S770   1.803       .  S
C767        C772   1.410       .  A
C767        C776   1.399       .  A
S768        H784   1.400       .  S
S770        H781   1.401       .  S
C772        C773   1.403       .  A
C772        S777   1.806       .  S
C773        C774   1.406   1_545  A
C773        H778   1.083       .  S
C774        C775   1.418   1_565  A
C775        C776   1.399       .  A
C775        S779   1.798   1_545  S
C776        H780   1.084       .  S
S777        H782   1.407       .  S
S779        H783   1.404       .  S
C785        C786   1.406       .  A
C785        C790   1.404       .  A
C785        H795   1.083       .  S
C786        C791   1.496   1_655  S
C786        C787   1.415       .  A
C787        C788   1.402       .  A
C787        S792   1.804       .  S
C788        C789   1.404       .  A
C788        H793   1.084       .  S
C789        C790   1.414       .  A
C790        S794   1.801       .  S
C791        C796   1.413       .  A
C791        C800   1.403       .  A
S792        H808   1.407   1_655  S
S794        H805   1.405       .  S
C796        C797   1.411       .  A
C796        S801   1.805       .  S
C797        C798   1.408       .  A
C797        H802   1.082       .  S
C798        C799   1.417       .  A
C799        C800   1.398       .  A
C799        S803   1.799       .  S
C800        H804   1.084       .  S
S801        H806   1.407       .  S
S803        H807   1.405       .  S
C809        C810   1.395   1_556  A
C809        C814   1.393       .  A
C809        H819   1.084       .  S
C810        C815   1.474       .  S
C810        C811   1.415   1_554  A
C811        C812   1.404       .  A
C811        S816   1.804   1_556  S
C812        C813   1.403       .  A
C812        H817   1.083       .  S
C813        C814   1.415       .  A
C814        S818   1.796       .  S
C815        C820   1.405       .  A
C815        C824   1.404       .  A
S816        H832   1.404       .  S
S818        H829   1.406       .  S
C820        C821   1.396       .  A
C820        S825   1.808   1_554  S
C821        C822   1.406       .  A
C821        H826   1.083       .  S
C822        C823   1.413       .  A
C823        C824   1.403       .  A
C823        S827   1.801       .  S
C824        H828   1.084       .  S
S825        H830   1.407   1_556  S
S827        H831   1.407       .  S
C833        C834   1.404       .  A
C833        C838   1.406       .  A
C833        H843   1.084       .  S
C834        C839   1.490       .  S
C834        C835   1.413       .  A
C835        C836   1.404       .  A
C835        S840   1.806       .  S
C836        C837   1.408       .  A
C836        H841   1.084       .  S
C837        C838   1.418       .  A
C838        S842   1.800       .  S
C839        C844   1.414       .  A
C839        C848   1.397       .  A
S840        H856   1.404       .  S
S842        H853   1.407       .  S
C844        C845   1.414       .  A
C844        S849   1.804       .  S
C845        C846   1.406       .  A
C845        H850   1.083       .  S
C846        C847   1.420       .  A
C847        C848   1.397       .  A
C847        S851   1.800       .  S
C848        H852   1.085       .  S
S849        H854   1.407       .  S
S851        H855   1.405       .  S
C857        C858   1.403       .  A
C857        C862   1.406       .  A
C857        H867   1.083       .  S
C858        C863   1.481       .  S
C858        C859   1.410       .  A
C859        C860   1.396       .  A
C859        S864   1.806       .  S
C860        C861   1.408       .  A
C860        H865   1.082       .  S
C861        C862   1.419       .  A
C862        S866   1.799       .  S
C863        C868   1.405       .  A
C863        C872   1.405       .  A
S864        H880   1.404       .  S
S866        H877   1.408       .  S
C868        C869   1.400       .  A
C868        S873   1.807       .  S
C869        C870   1.410       .  A
C869        H874   1.083       .  S
C870        C871   1.414       .  A
C871        C872   1.405       .  A
C871        S875   1.801       .  S
C872        H876   1.084       .  S
S873        H878   1.407       .  S
S875        H879   1.407       .  S
C881        C882   1.405       .  A
C881        C886   1.401       .  A
C881        H891   1.084       .  S
C882        C887   1.471       .  S
C882        C883   1.409       .  A
C883        C884   1.392       .  A
C883        S888   1.806       .  S
C884        C885   1.403       .  A
C884        H889   1.085       .  S
C885        C886   1.409       .  A
C886        S890   1.804       .  S
C887        C892   1.405       .  A
C887        C896   1.403       .  A
S888        H904   1.405       .  S
S890        H901   1.406       .  S
C892        C893   1.395       .  A
C892        S897   1.807       .  S
C893        C894   1.406       .  A
C893        H898   1.083       .  S
C894        C895   1.411       .  A
C895        C896   1.400       .  A
C895        S899   1.801       .  S
C896        H900   1.084       .  S
S897        H902   1.407       .  S
S899        H903   1.407       .  S
C905        C906   1.407       .  A
C905        C910   1.411       .  A
C905        H915   1.084       .  S
C906        C911   1.494       .  S
C906        C907   1.409       .  A
C907        C908   1.398       .  A
C907        S912   1.806       .  S
C908        C909   1.415       .  A
C908        H913   1.082       .  S
C909        C910   1.420       .  A
C910        S914   1.799       .  S
C911        C916   1.412       .  A
C911        C920   1.406       .  A
S912        H928   1.406       .  S
S914        H925   1.406       .  S
C916        C917   1.404       .  A
C916        S921   1.808       .  S
C917        C918   1.407       .  A
C917        H922   1.083       .  S
C918        C919   1.416       .  A
C919        C920   1.408       .  A
C919        S923   1.800       .  S
C920        H924   1.084       .  S
S921        H926   1.407       .  S
S923        H927   1.406       .  S
C929        C930   1.403       .  A
C929        C934   1.402       .  A
C929        H939   1.084       .  S
C930        C935   1.495       .  S
C930        C931   1.414       .  A
C931        C932   1.404       .  A
C931        S936   1.803       .  S
C932        C933   1.409       .  A
C932        H937   1.084       .  S
C933        C934   1.422       .  A
C934        S938   1.801       .  S
C935        C940   1.415       .  A
C935        C944   1.404       .  A
S936        H952   1.407       .  S
S938        H949   1.407       .  S
C940        C941   1.410       .  A
C940        S945   1.806       .  S
C941        C942   1.404       .  A
C941        H946   1.083       .  S
C942        C943   1.411       .  A
C943        C944   1.400       .  A
C943        S947   1.799       .  S
C944        H948   1.084       .  S
S945        H950   1.407       .  S
S947        H951   1.404       .  S
C953        C954   1.408       .  A
C953        C958   1.408       .  A
C953        H963   1.083       .  S
C954        C959   1.487       .  S
C954        C955   1.410       .  A
C955        C956   1.397       .  A
C955        S960   1.804       .  S
C956        C957   1.405       .  A
C956        H961   1.084       .  S
C957        C958   1.411       .  A
C958        S962   1.803       .  S
C959        C964   1.409       .  A
C959        C968   1.401       .  A
S960        H976   1.406       .  S
S962        H973   1.406       .  S
C964        C965   1.408       .  A
C964        S969   1.805       .  S
C965        C966   1.407       .  A
C965        H970   1.083       .  S
C966        C967   1.417       .  A
C967        C968   1.404       .  A
C967        S971   1.808       .  S
C968        H972   1.083       .  S
S969        H974   1.407   1_565  S
S971        H975   1.407       .  S
C977        C978   1.404       .  A
C977        C982   1.408       .  A
C977        H987   1.084       .  S
C978        C983   1.491   1_655  S
C978        C979   1.410       .  A
C979        C980   1.401       .  A
C979        S984   1.810   1_655  S
C980        C981   1.409       .  A
C980        H985   1.082       .  S
C981        C982   1.421       .  A
C982        S986   1.802       .  S
C983        C988   1.413       .  A
C983        C992   1.404       .  A
S984       H1000   1.406   1_455  S
S986        H997   1.407       .  S
C988        C989   1.409       .  A
C988        S993   1.806       .  S
C989        C990   1.405       .  A
C989        H994   1.083       .  S
C990        C991   1.413       .  A
C991        C992   1.400       .  A
C991        S995   1.804       .  S
C992        H996   1.084       .  S
S993        H998   1.407   1_565  S
S995        H999   1.407       .  S
C1001      C1002   1.403       .  A
C1001      C1006   1.394       .  A
C1001      H1011   1.084       .  S
C1002      C1007   1.477       .  S
C1002      C1003   1.412       .  A
C1003      C1004   1.398       .  A
C1003      S1008   1.804       .  S
C1004      C1005   1.404       .  A
C1004      H1009   1.084       .  S
C1005      C1006   1.409       .  A
C1006      S1010   1.801       .  S
C1007      C1012   1.407       .  A
C1007      C1016   1.406       .  A
S1008      H1024   1.406       .  S
S1010      H1021   1.405       .  S
C1012      C1013   1.395       .  A
C1012      S1017   1.809       .  S
C1013      C1014   1.405       .  A
C1013      H1018   1.083       .  S
C1014      C1015   1.411       .  A
C1015      C1016   1.401       .  A
C1015      S1019   1.803       .  S
C1016      H1020   1.084       .  S
S1017      H1022   1.407       .  S
S1019      H1023   1.407       .  S
C1025      C1026   1.406       .  A
C1025      C1030   1.406       .  A
C1025      H1035   1.083       .  S
C1026      C1031   1.486       .  S
C1026      C1027   1.412       .  A
C1027      C1028   1.400       .  A
C1027      S1032   1.806       .  S
C1028      C1029   1.406       .  A
C1028      H1033   1.083       .  S
C1029      C1030   1.414       .  A
C1030      S1034   1.799       .  S
C1031      C1036   1.413       .  A
C1031      C1040   1.394       .  A
S1032      H1048   1.403       .  S
S1034      H1045   1.407       .  S
C1036      C1037   1.414       .  A
C1036      S1041   1.804       .  S
C1037      C1038   1.407       .  A
C1037      H1042   1.082       .  S
C1038      C1039   1.425       .  A
C1039      C1040   1.395       .  A
C1039      S1043   1.803       .  S
C1040      H1044   1.084       .  S
S1041      H1046   1.407       .  S
S1043      H1047   1.404       .  S
C1049      C1050   1.404   1_565  A
C1049      C1054   1.402       .  A
C1049      H1059   1.084       .  S
C1050      C1055   1.486   1_545  S
C1050      C1051   1.409       .  A
C1051      C1052   1.400       .  A
C1051      S1056   1.804       .  S
C1052      C1053   1.411       .  A
C1052      H1057   1.083       .  S
C1053      C1054   1.419   1_545  A
C1054      S1058   1.802       .  S
C1055      C1060   1.408       .  A
C1055      C1064   1.404   1_565  A
S1056      H1072   1.406       .  S
S1058      H1069   1.408       .  S
C1060      C1061   1.402       .  A
C1060      S1065   1.807       .  S
C1061      C1062   1.408       .  A
C1061      H1066   1.083       .  S
C1062      C1063   1.415       .  A
C1063      C1064   1.403   1_565  A
C1063      S1067   1.796   1_565  S
C1064      H1068   1.084       .  S
S1065      H1070   1.407       .  S
S1067      H1071   1.400   1_545  S
C1073      C1074   1.408       .  A
C1073      C1078   1.405       .  A
C1073      H1083   1.084       .  S
C1074      C1079   1.491       .  S
C1074      C1075   1.413       .  A
C1075      C1076   1.399   1_565  A
C1075      S1080   1.804       .  S
C1076      C1077   1.403       .  A
C1076      H1081   1.085       .  S
C1077      C1078   1.412   1_545  A
C1078      S1082   1.803       .  S
C1079      C1084   1.407       .  A
C1079      C1088   1.404       .  A
S1080      H1096   1.406       .  S
S1082      H1093   1.403   1_565  S
C1084      C1085   1.405       .  A
C1084      S1089   1.807       .  S
C1085      C1086   1.414       .  A
C1085      H1090   1.082       .  S
C1086      C1087   1.420       .  A
C1087      C1088   1.406       .  A
C1087      S1091   1.809       .  S
C1088      H1092   1.083       .  S
S1089      H1094   1.407       .  S
S1091      H1095   1.406       .  S
C1097      C1098   1.406       .  A
C1097      C1102   1.408       .  A
C1097      H1107   1.083       .  S
C1098      C1103   1.488       .  S
C1098      C1099   1.411       .  A
C1099      C1100   1.398       .  A
C1099      S1104   1.805       .  S
C1100      C1101   1.406       .  A
C1100      H1105   1.083       .  S
C1101      C1102   1.415       .  A
C1102      S1106   1.801       .  S
C1103      C1108   1.408       .  A
C1103      C1112   1.404       .  A
S1104      H1120   1.406       .  S
S1106      H1117   1.407       .  S
C1108      C1109   1.406       .  A
C1108      S1113   1.806       .  S
C1109      C1110   1.410       .  A
C1109      H1114   1.083       .  S
C1110      C1111   1.416       .  A
C1111      C1112   1.403       .  A
C1111      S1115   1.802       .  S
C1112      H1116   1.084       .  S
S1113      H1118   1.407       .  S
S1115      H1119   1.408       .  S
C1121      C1122   1.406       .  A
C1121      C1126   1.396       .  A
C1121      H1131   1.084       .  S
C1122      C1127   1.499       .  S
C1122      C1123   1.420       .  A
C1123      C1124   1.410       .  A
C1123      S1128   1.804       .  S
C1124      C1125   1.407       .  A
C1124      H1129   1.084       .  S
C1125      C1126   1.413       .  A
C1126      S1130   1.805       .  S
C1127      C1132   1.418       .  A
C1127      C1136   1.399       .  A
S1128      H1144   1.405       .  S
S1130      H1141   1.408       .  S
C1132      C1133   1.417       .  A
C1132      S1137   1.805       .  S
C1133      C1134   1.409       .  A
C1133      H1138   1.082       .  S
C1134      C1135   1.421       .  A
C1135      C1136   1.392       .  A
C1135      S1139   1.804       .  S
C1136      H1140   1.084       .  S
S1137      H1142   1.407       .  S
S1139      H1143   1.407       .  S
C1145      C1146   1.405       .  A
C1145      C1150   1.403       .  A
C1145      H1155   1.084       .  S
C1146      C1151   1.483       .  S
C1146      C1147   1.411       .  A
C1147      C1148   1.400       .  A
C1147      S1152   1.803       .  S
C1148      C1149   1.403   1_545  A
C1148      H1153   1.085   1_545  S
C1149      C1150   1.411   1_565  A
C1150      S1154   1.802       .  S
C1151      C1156   1.407       .  A
C1151      C1160   1.398       .  A
S1152      H1168   1.406       .  S
S1154      H1165   1.406   1_545  S
C1156      C1157   1.408       .  A
C1156      S1161   1.804       .  S
C1157      C1158   1.411       .  A
C1157      H1162   1.083       .  S
C1158      C1159   1.421       .  A
C1159      C1160   1.401       .  A
C1159      S1163   1.811       .  S
C1160      H1164   1.083       .  S
S1161      H1166   1.407       .  S
S1163      H1167   1.406       .  S
C1169      C1170   1.403       .  A
C1169      C1174   1.400       .  A
C1169      H1179   1.084       .  S
C1170      C1175   1.481       .  S
C1170      C1171   1.411       .  A
C1171      C1172   1.401       .  A
C1171      S1176   1.804       .  S
C1172      C1173   1.407       .  A
C1172      H1177   1.084       .  S
C1173      C1174   1.414       .  A
C1174      S1178   1.804       .  S
C1175      C1180   1.409       .  A
C1175      C1184   1.401       .  A
S1176      H1192   1.405       .  S
S1178      H1189   1.407       .  S
C1180      C1181   1.403       .  A
C1180      S1185   1.806       .  S
C1181      C1182   1.405       .  A
C1181      H1186   1.083       .  S
C1182      C1183   1.416       .  A
C1183      C1184   1.401       .  A
C1183      S1187   1.800       .  S
C1184      H1188   1.084       .  S
S1185      H1190   1.407       .  S
S1187      H1191   1.406       .  S
C1193      C1194   1.407       .  A
C1193      C1198   1.406       .  A
C1193      H1203   1.084       .  S
C1194      C1199   1.493       .  S
C1194      C1195   1.411       .  A
C1195      C1196   1.400       .  A
C1195      S1200   1.804       .  S
C1196      C1197   1.410       .  A
C1196      H1201   1.083       .  S
C1197      C1198   1.417       .  A
C1198      S1202   1.801       .  S
C1199      C1204   1.411       .  A
C1199      C1208   1.410       .  A
S1200      H1216   1.407       .  S
S1202      H1213   1.407       .  S
C1204      C1205   1.400       .  A
C1204      S1209   1.808       .  S
C1205      C1206   1.404       .  A
C1205      H1210   1.084       .  S
C1206      C1207   1.411       .  A
C1207      C1208   1.408       .  A
C1207      S1211   1.803       .  S
C1208      H1212   1.083       .  S
S1209      H1214   1.407       .  S
S1211      H1215   1.405       .  S
C1217      C1218   1.407       .  A
C1217      C1222   1.403       .  A
C1217      H1227   1.084       .  S
C1218      C1223   1.479       .  S
C1218      C1219   1.410       .  A
C1219      C1220   1.392       .  A
C1219      S1224   1.805       .  S
C1220      C1221   1.402       .  A
C1220      H1225   1.085       .  S
C1221      C1222   1.411       .  A
C1222      S1226   1.806       .  S
C1223      C1228   1.409       .  A
C1223      C1232   1.401       .  A
S1224      H1240   1.407       .  S
S1226      H1237   1.404       .  S
C1228      C1229   1.403       .  A
C1228      S1233   1.806       .  S
C1229      C1230   1.404       .  A
C1229      H1234   1.083       .  S
C1230      C1231   1.414       .  A
C1231      C1232   1.397       .  A
C1231      S1235   1.809       .  S
C1232      H1236   1.083       .  S
S1233      H1238   1.407       .  S
S1235      H1239   1.406       .  S
C1241      C1242   1.409       .  A
C1241      C1246   1.405       .  A
C1241      H1251   1.084       .  S
C1242      C1247   1.500       .  S
C1242      C1243   1.417       .  A
C1243      C1244   1.404       .  A
C1243      S1248   1.803       .  S
C1244      C1245   1.404       .  A
C1244      H1249   1.085       .  S
C1245      C1246   1.412       .  A
C1246      S1250   1.803       .  S
C1247      C1252   1.416       .  A
C1247      C1256   1.406       .  A
S1248      H1264   1.406       .  S
S1250      H1261   1.406       .  S
C1252      C1253   1.407       .  A
C1252      S1257   1.807       .  S
C1253      C1254   1.404       .  A
C1253      H1258   1.083       .  S
C1254      C1255   1.413       .  A
C1255      C1256   1.408       .  A
C1255      S1259   1.805       .  S
C1256      H1260   1.082       .  S
S1257      H1262   1.407       .  S
S1259      H1263   1.407   1_545  S
C1265      C1266   1.403       .  A
C1265      C1270   1.401       .  A
C1265      H1275   1.084       .  S
C1266      C1271   1.485       .  S
C1266      C1267   1.411       .  A
C1267      C1268   1.403       .  A
C1267      S1272   1.803       .  S
C1268      C1269   1.407       .  A
C1268      H1273   1.084       .  S
C1269      C1270   1.414       .  A
C1270      S1274   1.802       .  S
C1271      C1276   1.408       .  A
C1271      C1280   1.402       .  A
S1272      H1288   1.405       .  S
S1274      H1285   1.404       .  S
C1276      C1277   1.406       .  A
C1276      S1281   1.805       .  S
C1277      C1278   1.407       .  A
C1277      H1282   1.083       .  S
C1278      C1279   1.416       .  A
C1279      C1280   1.404       .  A
C1279      S1283   1.808       .  S
C1280      H1284   1.083       .  S
S1281      H1286   1.407       .  S
S1283      H1287   1.407       .  S
C1289      C1290   1.402       .  A
C1289      C1294   1.401       .  A
C1289      H1299   1.084       .  S
C1290      C1295   1.489       .  S
C1290      C1291   1.413       .  A
C1291      C1292   1.407   1_565  A
C1291      S1296   1.803       .  S
C1292      C1293   1.409       .  A
C1292      H1297   1.084       .  S
C1293      C1294   1.418   1_545  A
C1294      S1298   1.804       .  S
C1295      C1300   1.410       .  A
C1295      C1304   1.402       .  A
S1296      H1312   1.405       .  S
S1298      H1309   1.405   1_565  S
C1300      C1301   1.407       .  A
C1300      S1305   1.805       .  S
C1301      C1302   1.408       .  A
C1301      H1306   1.083       .  S
C1302      C1303   1.417       .  A
C1303      C1304   1.403       .  A
C1303      S1307   1.799       .  S
C1304      H1308   1.084       .  S
S1305      H1310   1.407       .  S
S1307      H1311   1.407       .  S
C1313      C1314   1.400   1_565  A
C1313      C1318   1.397       .  A
C1313      H1323   1.084       .  S
C1314      C1319   1.492       .  S
C1314      C1315   1.416       .  A
C1315      C1316   1.405       .  A
C1315      S1320   1.804       .  S
C1316      C1317   1.408   1_545  A
C1316      H1321   1.084       .  S
C1317      C1318   1.423       .  A
C1318      S1322   1.804       .  S
C1319      C1324   1.414       .  A
C1319      C1328   1.400       .  A
S1320      H1336   1.407       .  S
S1322      H1333   1.408       .  S
C1324      C1325   1.409       .  A
C1324      S1329   1.806   1_545  S
C1325      C1326   1.405       .  A
C1325      H1330   1.081       .  S
C1326      C1327   1.416       .  A
C1327      C1328   1.398       .  A
C1327      S1331   1.799       .  S
C1328      H1332   1.084       .  S
S1329      H1334   1.407   1_565  S
S1331      H1335   1.405       .  S
C1337      C1338   1.402       .  A
C1337      C1342   1.405       .  A
C1337      H1347   1.084       .  S
C1338      C1343   1.487   1_455  S
C1338      C1339   1.410       .  A
C1339      C1340   1.401       .  A
C1339      S1344   1.803       .  S
C1340      C1341   1.410       .  A
C1340      H1345   1.083       .  S
C1341      C1342   1.423       .  A
C1342      S1346   1.802       .  S
C1343      C1348   1.411       .  A
C1343      C1352   1.398       .  A
S1344      H1360   1.406   1_455  S
S1346      H1357   1.408       .  S
C1348      C1349   1.412       .  A
C1348      S1353   1.804       .  S
C1349      C1350   1.408       .  A
C1349      H1354   1.083       .  S
C1350      C1351   1.420       .  A
C1351      C1352   1.396       .  A
C1351      S1355   1.801       .  S
C1352      H1356   1.084       .  S
S1353      H1358   1.407       .  S
S1355      H1359   1.400       .  S
C1361      C1362   1.409       .  A
C1361      C1366   1.412       .  A
C1361      H1371   1.083       .  S
C1362      C1367   1.495       .  S
C1362      C1363   1.411       .  A
C1363      C1364   1.400       .  A
C1363      S1368   1.805       .  S
C1364      C1365   1.408       .  A
C1364      H1369   1.083       .  S
C1365      C1366   1.415       .  A
C1366      S1370   1.801       .  S
C1367      C1372   1.412       .  A
C1367      C1376   1.404       .  A
S1368      H1384   1.406       .  S
S1370      H1381   1.407       .  S
C1372      C1373   1.410       .  A
C1372      S1377   1.805       .  S
C1373      C1374   1.406       .  A
C1373      H1378   1.085       .  S
C1374      C1375   1.414       .  A
C1375      C1376   1.404       .  A
C1375      S1379   1.803       .  S
C1376      H1380   1.085       .  S
S1377      H1382   1.407       .  S
S1379      H1383   1.406       .  S
C1385      C1386   1.402       .  A
C1385      C1390   1.401       .  A
C1385      H1395   1.084       .  S
C1386      C1391   1.497       .  S
C1386      C1387   1.418       .  A
C1387      C1388   1.411       .  A
C1387      S1392   1.804       .  S
C1388      C1389   1.405       .  A
C1388      H1393   1.082       .  S
C1389      C1390   1.417       .  A
C1390      S1394   1.805       .  S
C1391      C1396   1.411       .  A
C1391      C1400   1.407       .  A
S1392      H1408   1.405       .  S
S1394      H1405   1.404       .  S
C1396      C1397   1.407       .  A
C1396      S1401   1.807       .  S
C1397      C1398   1.410       .  A
C1397      H1402   1.083       .  S
C1398      C1399   1.415       .  A
C1399      C1400   1.407       .  A
C1399      S1403   1.801       .  S
C1400      H1404   1.084       .  S
S1401      H1406   1.407       .  S
S1403      H1407   1.408       .  S
C1409      C1410   1.408       .  A
C1409      C1414   1.407       .  A
C1409      H1419   1.084       .  S
C1410      C1415   1.493       .  S
C1410      C1411   1.413       .  A
C1411      C1412   1.401       .  A
C1411      S1416   1.804       .  S
C1412      C1413   1.403       .  A
C1412      H1417   1.083       .  S
C1413      C1414   1.412       .  A
C1414      S1418   1.804       .  S
C1415      C1420   1.411       .  A
C1415      C1424   1.403       .  A
S1416      H1432   1.406       .  S
S1418      H1429   1.405       .  S
C1420      C1421   1.409       .  A
C1420      S1425   1.805       .  S
C1421      C1422   1.407       .  A
C1421      H1426   1.083       .  S
C1422      C1423   1.415       .  A
C1423      C1424   1.405       .  A
C1423      S1427   1.807       .  S
C1424      H1428   1.083       .  S
S1425      H1430   1.407       .  S
S1427      H1431   1.407       .  S
C1433      C1434   1.406       .  A
C1433      C1438   1.406       .  A
C1433      H1443   1.084       .  S
C1434      C1439   1.488       .  S
C1434      C1435   1.412       .  A
C1435      C1436   1.399       .  A
C1435      S1440   1.805       .  S
C1436      C1437   1.407       .  A
C1436      H1441   1.084       .  S
C1437      C1438   1.415       .  A
C1438      S1442   1.803       .  S
C1439      C1444   1.410       .  A
C1439      C1448   1.402       .  A
S1440      H1456   1.405       .  S
S1442      H1453   1.407       .  S
C1444      C1445   1.404       .  A
C1444      S1449   1.808       .  S
C1445      C1446   1.408       .  A
C1445      H1450   1.083       .  S
C1446      C1447   1.420       .  A
C1447      C1448   1.404       .  A
C1447      S1451   1.802   1_545  S
C1448      H1452   1.084       .  S
S1449      H1454   1.407       .  S
S1451      H1455   1.407       .  S
C1457      C1458   1.406       .  A
C1457      C1462   1.409       .  A
C1457      H1467   1.084       .  S
C1458      C1463   1.493       .  S
C1458      C1459   1.411       .  A
C1459      C1460   1.399       .  A
C1459      S1464   1.805       .  S
C1460      C1461   1.411       .  A
C1460      H1465   1.083       .  S
C1461      C1462   1.421       .  A
C1462      S1466   1.801       .  S
C1463      C1468   1.410       .  A
C1463      C1472   1.406       .  A
S1464      H1480   1.406       .  S
S1466      H1477   1.408       .  S
C1468      C1469   1.404       .  A
C1468      S1473   1.807       .  S
C1469      C1470   1.408       .  A
C1469      H1474   1.083       .  S
C1470      C1471   1.416       .  A
C1471      C1472   1.411       .  A
C1471      S1475   1.807       .  S
C1472      H1476   1.083       .  S
S1473      H1478   1.407       .  S
S1475      H1479   1.407       .  S
C1481      C1482   1.398       .  A
C1481      C1486   1.394       .  A
C1481      H1491   1.084       .  S
C1482      C1487   1.478       .  S
C1482      C1483   1.415       .  A
C1483      C1484   1.404       .  A
C1483      S1488   1.804       .  S
C1484      C1485   1.401       .  A
C1484      H1489   1.083       .  S
C1485      C1486   1.413       .  A
C1486      S1490   1.797       .  S
C1487      C1492   1.410       .  A
C1487      C1496   1.395       .  A
S1488      H1504   1.406       .  S
S1490      H1501   1.406       .  S
C1492      C1493   1.406       .  A
C1492      S1497   1.806       .  S
C1493      C1494   1.407       .  A
C1493      H1498   1.083       .  S
C1494      C1495   1.423       .  A
C1495      C1496   1.394       .  A
C1495      S1499   1.802       .  S
C1496      H1500   1.085       .  S
S1497      H1502   1.407       .  S
S1499      H1503   1.407       .  S
