geometry optimzed in LAMMPS
_audit_creation_date              2020-12-01 
_audit_creation_method            'lammps2cif' 
_symmetry_space_group_name_H-M    'P1' 
_symmetry_Int_Tables_number       1 
_symmetry_cell_setting            triclinic 
loop_ 
_symmetry_equiv_pos_as_xyz 
  x,y,z 
_cell_length_a                    42.51434877 
_cell_length_b                    32.644478671045015 
_cell_length_c                    53.22855072451919 
_cell_angle_alpha                 90.09605098485946 
_cell_angle_beta                  89.68386007205926 
_cell_angle_gamma                 90.08242697067804 
loop_ 
_atom_site_label 
_atom_site_type_symbol 
_atom_site_fract_x 
_atom_site_fract_y 
_atom_site_fract_z 
_atom_site_charge 
O1          O  0.90155838  0.27310404  0.99424442    -0.82500
C2          C  0.85939250  0.10854015  0.99796173     0.96800
O3          O  0.84790499  0.13737030  0.98534932    -0.71700
O4          O  0.83276959  0.19777836  0.01453414    -0.75300
Al5        Al  0.85620401  0.19480836  0.98447453     1.49000
C6          C  0.83447729  0.22759757  0.02940002     0.92100
O7          O  0.90276311  0.20166339  0.04926935    -0.81500
O8          O  0.95441841  0.18575623  0.98874594    -0.75000
Al9        Al  0.90169588  0.23539515  0.02115234     1.90100
O10         O  0.93009630  0.15095316  0.03258633    -0.74100
O11         O  0.91111886  0.14347525  0.96244453    -0.74000
O12         O  0.88672003  0.11165463  0.00699441    -0.79600
O13         O  0.87584375  0.19049574  0.95319989    -0.77800
O14         O  0.89239014  0.19365926  0.00094815    -1.13900
O15         O  0.85569416  0.25388123  0.97961574    -0.73100
C16         C  0.87684666  0.28100481  0.98220487     0.97600
C17         C  0.91910237  0.16974673  0.05152223     0.94000
Al18       Al  0.91856227  0.15141726  0.99782427     1.55600
O19         O  0.85926022  0.24878426  0.03060944    -0.77800
C20         C  0.89454121  0.16252428  0.94659197     0.98100
C21         C  0.96419250  0.21520612  0.00217440     0.93000
O22         O  0.94592316  0.23246929  0.01748790    -0.83100
O23         O  0.85603306  0.25837703  0.75064721    -0.82500
C24         C  0.90753075  0.09975381  0.75202500     0.96800
O25         O  0.91559039  0.12844958  0.76669162    -0.71700
O26         O  0.93025477  0.18919374  0.73779765    -0.75300
Al27       Al  0.90427402  0.18615066  0.76608573     1.49000
C28         C  0.92872543  0.21691307  0.72161645     0.92100
O29         O  0.86369223  0.18269550  0.69872259    -0.81500
O30         O  0.80895762  0.16900210  0.75885527    -0.75000
Al31       Al  0.86046473  0.21891453  0.72550844     1.90100
O32         O  0.83471039  0.13349906  0.71503610    -0.74100
O33         O  0.85263233  0.12915182  0.78610954    -0.74000
O34         O  0.88064048  0.10035529  0.74182899    -0.79600
O35         O  0.88189184  0.18235548  0.79605244    -0.77800
O36         O  0.87010980  0.18033694  0.74750277    -1.13900
O37         O  0.90073159  0.24616385  0.76957531    -0.73100
C38         C  0.87782105  0.26997528  0.76485513     0.97600
C39         C  0.84653899  0.15157964  0.69611734     0.94000
Al40       Al  0.84599270  0.13622336  0.75037587     1.55600
O41         O  0.90318963  0.23563559  0.71785440    -0.77800
C42         C  0.86566853  0.15182881  0.80235342     0.98100
C43         C  0.79848854  0.19725376  0.74479343     0.93000
O44         O  0.81577803  0.21202574  0.72769145    -0.83100
O45         O  0.67243837  0.35104295  0.00477151    -0.82500
C46         C  0.54325606  0.34636522  0.02005477     0.96800
O47         O  0.56237779  0.33159779  0.03568967    -0.71700
O48         O  0.59515870  0.28310663  0.00643954    -0.75300
Al49       Al  0.60683530  0.32316947  0.03027431     1.49000
C50         C  0.61353757  0.27087208  0.98941170     0.92100
O51         O  0.60679409  0.35710828  0.95754968    -0.81500
O52         O  0.62642385  0.44136091  0.00934454    -0.75000
Al53       Al  0.63869567  0.35394954  0.98210387     1.90100
O54         O  0.58511756  0.41346904  0.97229659    -0.74100
O55         O  0.59033185  0.41211200  0.04557256    -0.74000
O56         O  0.55098008  0.37741637  0.00727917    -0.79600
O57         O  0.61873403  0.35878360  0.05584898    -0.77800
O58         O  0.61162966  0.36169771  0.00701308    -1.13900
O59         O  0.65025828  0.30652180  0.03025108    -0.73100
C60         C  0.67431209  0.32581467  0.02259509     0.97600
C61         C  0.59021047  0.38870540  0.95422802     0.94000
Al62       Al  0.58952115  0.40761451  0.00866987     1.55600
O63         O  0.63449876  0.29459986  0.98065844    -0.77800
C64         C  0.60874511  0.39403405  0.06068123     0.98100
C65         C  0.64771286  0.44088062  0.99267674     0.93000
O66         O  0.64992837  0.41087002  0.97770566    -0.83100
O67         O  0.59574080  0.34602857  0.25749414    -0.82500
C68         C  0.72481562  0.34097544  0.23746865     0.96800
O69         O  0.70428103  0.32474341  0.22353104    -0.71700
O70         O  0.67208242  0.27683810  0.25342379    -0.75300
Al71       Al  0.65994302  0.31733004  0.22998733     1.49000
C72         C  0.65434668  0.26549437  0.27108798     0.92100
O73         O  0.66355003  0.35042464  0.30268362    -0.81500
O74         O  0.64253450  0.43628578  0.25268391    -0.75000
Al75       Al  0.63061860  0.34827447  0.27909324     1.90100
O76         O  0.68571091  0.40637607  0.28786044    -0.74100
O77         O  0.67625713  0.40692061  0.21480634    -0.74000
O78         O  0.71773824  0.37165102  0.25084718    -0.79600
O79         O  0.64776748  0.35329237  0.20474814    -0.77800
O80         O  0.65668548  0.35590731  0.25349327    -1.13900
O81         O  0.61589361  0.30144040  0.23100420    -0.73100
C82         C  0.59237379  0.32068219  0.23981151     0.97600
C83         C  0.68075518  0.38151825  0.30589256     0.94000
Al84       Al  0.67915490  0.40172127  0.25154143     1.55600
O85         O  0.63404120  0.28959911  0.28016376    -0.77800
C86         C  0.65766484  0.38862540  0.19987564     0.98100
C87         C  0.62182795  0.43526151  0.26981996     0.93000
O88         O  0.62027812  0.40475021  0.28431875    -0.83100
O89         O  0.35361955  0.26583965  0.25709739    -0.82500
C90         C  0.40215574  0.10470764  0.25946390     0.96800
O91         O  0.41114255  0.13492075  0.27247559    -0.71700
O92         O  0.42782880  0.19560406  0.24358171    -0.75300
Al93       Al  0.40101793  0.19238126  0.27168847     1.49000
C94         C  0.42697029  0.22481801  0.22828946     0.92100
O95         O  0.36119009  0.19168534  0.20375292    -0.81500
O96         O  0.30663778  0.17693610  0.26350549    -0.75000
Al97       Al  0.35813139  0.22707466  0.23115362     1.90100
O98         O  0.33241095  0.14177975  0.21973346    -0.74100
O99         O  0.34840014  0.13610533  0.29099703    -0.74000
O100        O  0.37645786  0.10615448  0.24758326    -0.79600
O101        O  0.37774432  0.18901463  0.30130504    -0.77800
O102        O  0.36729812  0.18738544  0.25267796    -1.13900
O103        O  0.39827675  0.25169249  0.27557873    -0.73100
C104        C  0.37543131  0.27586258  0.27176552     0.97600
C105        C  0.34436677  0.16020831  0.20096859     0.94000
Al106      Al  0.34267659  0.14362149  0.25521001     1.55600
O107        O  0.40141674  0.24356479  0.22429985    -0.77800
C108        C  0.36115188  0.15874030  0.30738084     0.98100
C109        C  0.29638341  0.20604379  0.25018240     0.93000
O110        O  0.31320130  0.22066173  0.23275202    -0.83100
O111        O  0.42359191  0.26669116  0.49867392    -0.82500
C112        C  0.36932618  0.10914113  0.49869702     0.96800
O113        O  0.36002491  0.13987456  0.48634317    -0.71700
O114        O  0.34787931  0.20146938  0.51569630    -0.75300
Al115      Al  0.37219075  0.19681376  0.48639765     1.49000
C116        C  0.35074979  0.23092514  0.53067642     0.92100
O117        O  0.41593959  0.19377629  0.55178278    -0.81500
O118        O  0.46575175  0.17670252  0.48928482    -0.75000
Al119      Al  0.41898982  0.22882374  0.52464523     1.90100
O120        O  0.44324440  0.14322374  0.53487135    -0.74100
O121        O  0.42037945  0.13699329  0.46419358    -0.74000
O122        O  0.39589631  0.10933855  0.50930712    -0.79600
O123        O  0.39313138  0.19230495  0.45591525    -0.77800
O124        O  0.40690284  0.18982652  0.50360904    -1.13900
O125        O  0.37707835  0.25596170  0.48227369    -0.73100
C126        C  0.40133964  0.27830097  0.48500593     0.97600
C127        C  0.43285740  0.16241645  0.55405428     0.94000
Al128      Al  0.42987421  0.14492865  0.49974306     1.55600
O129        O  0.37706826  0.24854804  0.53328527    -0.77800
C130        C  0.40640142  0.16004468  0.44868167     0.98100
C131        C  0.47787803  0.20484405  0.50243693     0.93000
O132        O  0.46322974  0.21915092  0.52116741    -0.83100
O133        O  0.09151186  0.34474799  0.74785388    -0.82500
C134        C  0.22165330  0.33879428  0.73501075     0.96800
O135        O  0.20241191  0.32033973  0.72091765    -0.71700
O136        O  0.16859469  0.27642445  0.75233916    -0.75300
Al137      Al  0.15780239  0.31251439  0.72602926     1.49000
C138        C  0.14908016  0.26681301  0.76922221     0.92100
O139        O  0.15462027  0.35682258  0.79616443    -0.81500
O140        O  0.13891139  0.43238991  0.73980261    -0.75000
Al141      Al  0.12403371  0.35067432  0.77119620     1.90100
O142        O  0.17808144  0.41053153  0.77947555    -0.74100
O143        O  0.17495812  0.39887806  0.70629511    -0.74000
O144        O  0.21332109  0.37065434  0.74667341    -0.79600
O145        O  0.14661566  0.34417773  0.69865050    -0.77800
O146        O  0.15246536  0.35434535  0.74690528    -1.13900
O147        O  0.11416200  0.29569676  0.72605661    -0.73100
C148        C  0.08999802  0.31648553  0.73179652     0.97600
C149        C  0.17162202  0.38824912  0.79845871     0.94000
Al150      Al  0.17496312  0.39969818  0.74330027     1.55600
O151        O  0.12777784  0.29177431  0.77589312    -0.77800
C152        C  0.15601735  0.37909977  0.69235084     0.98100
C153        C  0.11616330  0.43477827  0.75491928     0.93000
O154        O  0.11282129  0.40841525  0.77213005    -0.83100
O155        O  0.18375813  0.35057694  0.49717534    -0.82500
C156        C  0.05368293  0.32864287  0.51352574     0.96800
O157        O  0.07575716  0.31659905  0.52749519    -0.71700
O158        O  0.11158768  0.27341175  0.49730346    -0.75300
Al159      Al  0.12034108  0.31414472  0.52133755     1.49000
C160        C  0.13007071  0.26435269  0.47956776     0.92100
O161        O  0.12004096  0.34970020  0.44865345    -0.81500
O162        O  0.12757767  0.43347492  0.50124148    -0.75000
Al163      Al  0.15044365  0.35012343  0.47399038     1.90100
O164        O  0.09031629  0.39968652  0.46297427    -0.74100
O165        O  0.09446622  0.39829003  0.53651506    -0.74000
O166        O  0.05853689  0.35786396  0.49835422    -0.79600
O167        O  0.12941768  0.35165757  0.54668281    -0.77800
O168        O  0.12163507  0.35292291  0.49814054    -1.13900
O169        O  0.16479993  0.30220411  0.52124745    -0.73100
C170        C  0.18761770  0.32423471  0.51407275     0.97600
C171        C  0.09922737  0.37636902  0.44513860     0.94000
Al172      Al  0.09458612  0.39424255  0.49954398     1.55600
O173        O  0.14996024  0.29032080  0.47144446    -0.77800
C174        C  0.11474443  0.38403514  0.55170389     0.98100
C175        C  0.15162588  0.43651634  0.48738102     0.93000
O176        O  0.15766794  0.40889939  0.47132509    -0.83100
O177        O  0.58568069  0.85258655  0.76119069    -0.82500
C178        C  0.71563395  0.83259420  0.74449069     0.96800
O179        O  0.69377466  0.81352917  0.73364719    -0.71700
O180        O  0.65647982  0.77270861  0.76337617    -0.75300
Al181      Al  0.64930723  0.81244921  0.73791028     1.49000
C182        C  0.63538980  0.76412959  0.77915827     0.92100
O183        O  0.65089858  0.84890361  0.80857855    -0.81500
O184        O  0.63646785  0.93542959  0.75764767    -0.75000
Al185      Al  0.61893107  0.85056950  0.78444792     1.90100
O186        O  0.67864358  0.90105453  0.79366961    -0.74100
O187        O  0.66783576  0.90213019  0.72014710    -0.74000
O188        O  0.70981302  0.86580446  0.75587660    -0.79600
O189        O  0.64200647  0.84605149  0.71063797    -0.77800
O190        O  0.64701636  0.85366738  0.75968192    -1.13900
O191        O  0.60452566  0.80345593  0.73703453    -0.73100
C192        C  0.58231654  0.82737940  0.74335374     0.97600
C193        C  0.67170852  0.87621348  0.81145985     0.94000
Al194      Al  0.67152281  0.89764532  0.75699866     1.55600
O195        O  0.61648014  0.79155211  0.78636190    -0.77800
C196        C  0.65103827  0.88138874  0.70501673     0.98100
C197        C  0.61552484  0.93743030  0.77448984     0.93000
O198        O  0.61268581  0.90820134  0.78973488    -0.83100
O199        O  0.68752357  0.85824769  0.50253679    -0.82500
C200        C  0.56102080  0.81834259  0.52291849     0.96800
O201        O  0.58468538  0.80687705  0.53538046    -0.71700
O202        O  0.62330126  0.77024585  0.50434270    -0.75300
Al203      Al  0.62897404  0.81155265  0.52882128     1.49000
C204        C  0.64230978  0.76442366  0.48646632     0.92100
O205        O  0.62057064  0.84804615  0.45736348    -0.81500
O206        O  0.62692093  0.93167221  0.51101782    -0.75000
Al207      Al  0.65289697  0.85298536  0.48095465     1.90100
O208        O  0.58948206  0.89554533  0.47307081    -0.74100
O209        O  0.59753867  0.89179790  0.54672791    -0.74000
O210        O  0.56286422  0.84975261  0.50909753    -0.79600
O211        O  0.63550523  0.84855742  0.55503393    -0.77800
O212        O  0.62583438  0.85120844  0.50643411    -1.13900
O213        O  0.67416064  0.80770204  0.52746870    -0.73100
C214        C  0.69456506  0.83269626  0.51924810     0.97600
C215        C  0.59814437  0.87280879  0.45478429     0.94000
Al216      Al  0.59627636  0.88936103  0.50964209     1.55600
O217        O  0.65849973  0.79392729  0.47786775    -0.77800
C218        C  0.61885255  0.87859544  0.56133131     0.98100
C219        C  0.64901084  0.93787997  0.49559556     0.93000
O220        O  0.65433488  0.91217405  0.47827232    -0.83100
O221        O  0.41314018  0.77736451  0.99197429    -0.82500
C222        C  0.35901775  0.62010266  0.99946396     0.96800
O223        O  0.35215737  0.64681545  0.98322472    -0.71700
O224        O  0.33680408  0.71245769  0.00824041    -0.75300
Al225      Al  0.36411537  0.70404600  0.98097740     1.49000
C226        C  0.33824157  0.74298292  0.02256534     0.92100
O227        O  0.40046734  0.71487991  0.04959517    -0.81500
O228        O  0.45869097  0.68534673  0.99448921    -0.75000
Al229      Al  0.40626602  0.74425387  0.02017896     1.90100
O230        O  0.42794486  0.66049226  0.03890991    -0.74100
O231        O  0.41666228  0.64361574  0.96666993    -0.74000
O232        O  0.38459160  0.62279632  0.01137509    -0.79600
O233        O  0.38826691  0.69485468  0.95227739    -0.77800
O234        O  0.39710227  0.70130860  0.00114247    -1.13900
O235        O  0.36833186  0.76285116  0.97378994    -0.73100
C236        C  0.39162356  0.78678643  0.97694883     0.97600
C237        C  0.41584631  0.68362917  0.05566511     0.94000
Al238      Al  0.42024392  0.65635113  0.00266163     1.55600
O239        O  0.36351837  0.76308004  0.02474223    -0.77800
C240        C  0.40519104  0.66389207  0.94846975     0.98100
C241        C  0.46897616  0.71565209  0.00686223     0.93000
O242        O  0.45076380  0.73599253  0.02083718    -0.83100
O243        O  0.35128348  0.76662534  0.75213130    -0.82500
C244        C  0.41751543  0.61698284  0.75006956     0.96800
O245        O  0.42416932  0.64793756  0.76332852    -0.71700
O246        O  0.43026794  0.71028752  0.73450891    -0.75300
Al247      Al  0.40754981  0.70230613  0.76436908     1.49000
C248        C  0.42454526  0.73794749  0.71890929     0.92100
O249        O  0.36238984  0.69225821  0.69959508    -0.81500
O250        O  0.31461167  0.67039540  0.76239038    -0.75000
Al251      Al  0.35751437  0.72773397  0.72657273     1.90100
O252        O  0.33966980  0.63854452  0.71687635    -0.74100
O253        O  0.36319280  0.63745120  0.78753700    -0.74000
O254        O  0.38977584  0.61168113  0.74208681    -0.79600
O255        O  0.38921095  0.69397064  0.79606457    -0.77800
O256        O  0.37270027  0.69083787  0.74787147    -1.13900
O257        O  0.39831101  0.76067784  0.76853575    -0.73100
C258        C  0.37354978  0.78155734  0.76467771     0.97600
C259        C  0.34841817  0.65844970  0.69748965     0.94000
Al260      Al  0.35311740  0.64306845  0.75198467     1.55600
O261        O  0.39713492  0.75209438  0.71680721    -0.77800
C262        C  0.37619810  0.66132062  0.80323878     0.98100
C263        C  0.30085939  0.69755414  0.74946940     0.93000
O264        O  0.31440249  0.71322669  0.73072943    -0.83100
O265        O  0.17065226  0.85515081  0.99606398    -0.82500
C266        C  0.04132023  0.84854453  0.01293709     0.96800
O267        O  0.06123410  0.83095118  0.02686013    -0.71700
O268        O  0.09587292  0.78386067  0.99887215    -0.75300
Al269      Al  0.10605704  0.82471798  0.02263386     1.49000
C270        C  0.11467378  0.77199529  0.98213651     0.92100
O271        O  0.10354318  0.85767938  0.95094348    -0.81500
O272        O  0.12548673  0.94300733  0.00216356    -0.75000
Al273      Al  0.13652221  0.85614347  0.97430449     1.90100
O274        O  0.08345185  0.91543676  0.96522773    -0.74100
O275        O  0.08760906  0.91318216  0.03840423    -0.74000
O276        O  0.04905900  0.87997496  0.00047756    -0.79600
O277        O  0.11592338  0.86000423  0.04890861    -0.77800
O278        O  0.11001946  0.86346825  0.99964734    -1.13900
O279        O  0.15040962  0.81125672  0.02306266    -0.73100
C280        C  0.17367032  0.83140553  0.01449224     0.97600
C281        C  0.08779940  0.88994352  0.94740504     0.94000
Al282      Al  0.08787930  0.90946841  0.00156782     1.55600
O283        O  0.13460001  0.79670082  0.97308388    -0.77800
C284        C  0.10370438  0.89368409  0.05443708     0.98100
C285        C  0.14605968  0.94239853  0.98480881     0.93000
O286        O  0.14637424  0.91305962  0.96927145    -0.83100
O287        O  0.09320752  0.85135509  0.24850303    -0.82500
C288        C  0.22491103  0.83340988  0.23562751     0.96800
O289        O  0.20366314  0.81678366  0.22261718    -0.71700
O290        O  0.16710525  0.77791046  0.25502322    -0.75300
Al291      Al  0.15900798  0.81393961  0.22779593     1.49000
C292        C  0.14638866  0.77137023  0.27166165     0.92100
O293        O  0.15674067  0.86254522  0.29722254    -0.81500
O294        O  0.14752240  0.93659254  0.23957707    -0.75000
Al295      Al  0.12660844  0.85734422  0.27188710     1.90100
O296        O  0.18511948  0.91143503  0.27999001    -0.74100
O297        O  0.18274677  0.89644458  0.20716732    -0.74000
O298        O  0.21876646  0.86576271  0.24785620    -0.79600
O299        O  0.15013468  0.84582215  0.19935335    -0.77800
O300        O  0.15588074  0.85696716  0.24794032    -1.13900
O301        O  0.11541567  0.80058996  0.22809355    -0.73100
C302        C  0.09108820  0.82001136  0.23469405     0.97600
C303        C  0.17660085  0.89096050  0.29919121     0.94000
Al304      Al  0.18170658  0.89932708  0.24398838     1.55600
O305        O  0.12746593  0.79938002  0.27811253    -0.77800
C306        C  0.16395801  0.87800985  0.19244095     0.98100
C307        C  0.12408826  0.94114498  0.25398997     0.93000
O308        O  0.11860964  0.91533273  0.27111150    -0.83100
O309        O  0.83997888  0.77098919  0.26361199    -0.82500
C310        C  0.90245763  0.61905890  0.25733667     0.96800
O311        O  0.90878475  0.64705354  0.27296710    -0.71700
O312        O  0.91984314  0.71434827  0.24800082    -0.75300
Al313      Al  0.89340650  0.70266668  0.27546419     1.49000
C314        C  0.91655579  0.74597339  0.23484483     0.92100
O315        O  0.85589127  0.70560977  0.20693664    -0.81500
O316        O  0.80038314  0.67646079  0.26469520    -0.75000
Al317      Al  0.84852154  0.73675512  0.23591230     1.90100
O318        O  0.83033039  0.65074934  0.21994051    -0.74100
O319        O  0.84484254  0.63747379  0.29116487    -0.74000
O320        O  0.87604013  0.61826912  0.24651923    -0.79600
O321        O  0.87068147  0.69145705  0.30469797    -0.77800
O322        O  0.86041862  0.69595539  0.25579620    -1.13900
O323        O  0.88524715  0.76009429  0.28219997    -0.73100
C324        C  0.86144424  0.78260280  0.27822969     0.97600
C325        C  0.84211396  0.67221883  0.20231665     0.94000
Al326      Al  0.83933643  0.64919027  0.25565729     1.55600
O327        O  0.88959072  0.76081385  0.23119902    -0.77800
C328        C  0.85584041  0.65890716  0.30893543     0.98100
C329        C  0.78850574  0.70513620  0.25184843     0.93000
O330        O  0.80482379  0.72359511  0.23562192    -0.83100
O331        O  0.92730950  0.76862362  0.49255086    -0.82500
C332        C  0.86682088  0.61616436  0.50672847     0.96800
O333        O  0.85673153  0.64594694  0.49405868    -0.71700
O334        O  0.85201131  0.71211868  0.51957744    -0.75300
Al335      Al  0.87142367  0.70047651  0.48871077     1.49000
C336        C  0.85795194  0.74372714  0.53201891     0.92100
O337        O  0.92248581  0.70341148  0.55009073    -0.81500
O338        O  0.96591530  0.67557770  0.48595054    -0.75000
Al339      Al  0.92433853  0.73458085  0.52099172     1.90100
O340        O  0.94497538  0.64809062  0.53413838    -0.74100
O341        O  0.91686275  0.63610646  0.46515561    -0.74000
O342        O  0.89556282  0.61380674  0.51256013    -0.79600
O343        O  0.88617468  0.68828943  0.45669475    -0.77800
O344        O  0.90834885  0.69358153  0.50292037    -1.13900
O345        O  0.87863031  0.75791310  0.48027167    -0.73100
C346        C  0.90338343  0.77991006  0.48047233     0.97600
C347        C  0.93603366  0.66942025  0.55296702     0.94000
Al348      Al  0.92951565  0.64697387  0.49963059     1.55600
O349        O  0.88498023  0.75956741  0.53114363    -0.77800
C350        C  0.90022023  0.65630693  0.44985593     0.98100
C351        C  0.98016143  0.70416415  0.49732978     0.93000
O352        O  0.96752280  0.72104731  0.51606452    -0.83100
O353        O  0.85216988  0.02457742  0.48974730    -0.82500
C354        C  0.90473498  0.18366078  0.49205571     0.96800
O355        O  0.91210180  0.15483212  0.47728053    -0.71700
O356        O  0.92700313  0.09219853  0.50470637    -0.75300
Al357      Al  0.90064925  0.09757299  0.47696047     1.49000
C358        C  0.92513631  0.06332510  0.52019399     0.92100
O359        O  0.85990853  0.09339634  0.54533783    -0.81500
O360        O  0.80672703  0.11716076  0.48684891    -0.75000
Al361      Al  0.85680078  0.06112990  0.51674107     1.90100
O362        O  0.83362263  0.14662836  0.53138943    -0.74100
O363        O  0.84988540  0.15747798  0.46008874    -0.74000
O364        O  0.87922517  0.18211496  0.50442728    -0.79600
O365        O  0.87712924  0.10361964  0.44776332    -0.77800
O366        O  0.86705575  0.10226543  0.49650887    -1.13900
O367        O  0.89746125  0.03824807  0.47193747    -0.73100
C368        C  0.87458812  0.01395552  0.47571809     0.97600
C369        C  0.84438857  0.12547287  0.54939335     0.94000
Al370      Al  0.84397146  0.14741836  0.49578704     1.55600
O371        O  0.89959468  0.04395922  0.52337394    -0.77800
C372        C  0.86156618  0.13532255  0.44281530     0.98100
C373        C  0.79570821  0.08692883  0.49889274     0.93000
O374        O  0.81221311  0.06887332  0.51507811    -0.83100
O375        O  0.91625114  0.02325610  0.25398725    -0.82500
C376        C  0.86525414  0.18161812  0.24496236     0.96800
O377        O  0.85377934  0.15286655  0.25792188    -0.71700
O378        O  0.84370593  0.08865333  0.23072737    -0.75300
Al379      Al  0.86505072  0.09628370  0.26120858     1.49000
C380        C  0.84693899  0.05673717  0.21788273     0.92100
O381        O  0.91402949  0.09179996  0.19816569    -0.81500
O382        O  0.96093992  0.11219448  0.26114203    -0.75000
Al383      Al  0.91460206  0.05880138  0.22647189     1.90100
O384        O  0.94036052  0.14358505  0.21472524    -0.74100
O385        O  0.91508480  0.15424176  0.28413920    -0.74000
O386        O  0.89355008  0.18049134  0.23764914    -0.79600
O387        O  0.88190986  0.10454054  0.29288702    -0.77800
O388        O  0.90185411  0.10008296  0.24584721    -1.13900
O389        O  0.86879835  0.03787197  0.26812523    -0.73100
C390        C  0.89243373  0.01406365  0.26702368     0.97600
C391        C  0.92959403  0.12450303  0.19579299     0.94000
Al392      Al  0.92582904  0.14422107  0.24924747     1.55600
O393        O  0.87319038  0.03870212  0.21713003    -0.77800
C394        C  0.89842220  0.13440397  0.29973547     0.98100
C395        C  0.97346898  0.08347673  0.24861806     0.93000
O396        O  0.95883179  0.06734300  0.23061257    -0.83100
O397        O  0.18659260  0.95334934  0.75336153    -0.82500
C398        C  0.05722012  0.95146655  0.73778805     0.96800
O399        O  0.07616688  0.96951369  0.72308565    -0.71700
O400        O  0.10851009  0.01807706  0.75180415    -0.75300
Al401      Al  0.12077065  0.97891803  0.72753453     1.49000
C402        C  0.12610960  0.03038080  0.76912496     0.92100
O403        O  0.11991226  0.94313873  0.79950453    -0.81500
O404        O  0.14450003  0.86056553  0.74748771    -0.75000
Al405      Al  0.15255026  0.94843209  0.77550007     1.90100
O406        O  0.10101882  0.88562548  0.78392225    -0.74100
O407        O  0.10742139  0.88875827  0.71116697    -0.74000
O408        O  0.06605119  0.91983869  0.74948568    -0.79600
O409        O  0.13273634  0.94489115  0.70111984    -0.77800
O410        O  0.12640368  0.93978757  0.75023356    -1.13900
O411        O  0.16448536  0.99629245  0.72704294    -0.73100
C412        C  0.18858850  0.97756953  0.73503513     0.97600
C413        C  0.10412542  0.91058322  0.80208060     0.94000
Al414      Al  0.10601763  0.89236373  0.74798715     1.55600
O415        O  0.14728151  0.00720070  0.77762150    -0.77800
C416        C  0.12416050  0.90920563  0.69584171     0.98100
C417        C  0.16546441  0.86272556  0.76429439     0.93000
O418        O  0.16532146  0.89245320  0.77955104    -0.83100
O419        O  0.09420227  0.94505740  0.49649691    -0.82500
C420        C  0.22305315  0.96095623  0.51586963     0.96800
O421        O  0.20071610  0.97341376  0.52962977    -0.71700
O422        O  0.16838095  0.01824096  0.49828586    -0.75300
Al423      Al  0.15682197  0.97844267  0.52211003     1.49000
C424        C  0.15145838  0.02788373  0.47985770     0.92100
O425        O  0.15971220  0.94051243  0.44920382    -0.81500
O426        O  0.14810582  0.85928911  0.50272706    -0.75000
Al427      Al  0.12837900  0.94293156  0.47416921     1.90100
O428        O  0.18677599  0.88958496  0.46498774    -0.74100
O429        O  0.18040708  0.89455472  0.53841606    -0.74000
O430        O  0.21829892  0.93235203  0.50023756    -0.79600
O431        O  0.14499954  0.94158250  0.54718480    -0.77800
O432        O  0.15574332  0.93941771  0.49898260    -1.13900
O433        O  0.11299092  0.99318772  0.52068195    -0.73100
C434        C  0.09013457  0.97182184  0.51313040     0.97600
C435        C  0.17864463  0.91133451  0.44632554     0.94000
Al436      Al  0.18169592  0.89717729  0.50129875     1.55600
O437        O  0.13138994  0.00271447  0.47108805    -0.77800
C438        C  0.15937278  0.90936766  0.55298569     0.98100
C439        C  0.12480670  0.85628341  0.48827309     0.93000
O440        O  0.11924678  0.88430372  0.47238541    -0.83100
O441        O  0.58391833  0.94330203  0.00389246    -0.82500
C442        C  0.71226488  0.96433257  0.02406750     0.96800
O443        O  0.69000054  0.97588296  0.03832023    -0.71700
O444        O  0.65397947  0.02205850  0.01083743    -0.75300
Al445      Al  0.64527200  0.97762280  0.03256690     1.49000
C446        C  0.63652986  0.03294557  0.99304671     0.92100
O447        O  0.65175926  0.95336058  0.95899748    -0.81500
O448        O  0.63751952  0.86079095  0.00670725    -0.75000
Al449      Al  0.61884234  0.94825716  0.98241868     1.90100
O450        O  0.67766440  0.89850283  0.97075583    -0.74100
O451        O  0.67150644  0.89225451  0.04453465    -0.74000
O452        O  0.70782764  0.93551109  0.00851544    -0.79600
O453        O  0.63633070  0.93721076  0.05671069    -0.77800
O454        O  0.64539892  0.94187562  0.00759176    -1.13900
O455        O  0.60048487  0.98696579  0.03229205    -0.73100
C456        C  0.57859968  0.96595102  0.02258753     0.97600
C457        C  0.67134456  0.92545742  0.95420551     0.94000
Al458      Al  0.67175730  0.89980531  0.00765719     1.55600
O459        O  0.61755718  0.00771492  0.98328464    -0.77800
C460        C  0.65268852  0.90611523  0.06119941     0.98100
C461        C  0.61637293  0.86038914  0.99002409     0.93000
O462        O  0.61336175  0.89078284  0.97551649    -0.83100
O463        O  0.67926245  0.94332220  0.25930104    -0.82500
C464        C  0.54944018  0.95872205  0.24156748     0.96800
O465        O  0.57130712  0.97164961  0.22740410    -0.71700
O466        O  0.60681928  0.01904353  0.25489537    -0.75300
Al467      Al  0.61604650  0.97553965  0.23262250     1.49000
C468        C  0.62515794  0.03036458  0.27204051     0.92100
O469        O  0.61309339  0.95056718  0.30629527    -0.81500
O470        O  0.62672596  0.85889355  0.25813980    -0.75000
Al471      Al  0.64505180  0.94677475  0.28185577     1.90100
O472        O  0.58712645  0.89542507  0.29475435    -0.74100
O473        O  0.59185313  0.88885734  0.22070078    -0.74000
O474        O  0.55493704  0.93071660  0.25736272    -0.79600
O475        O  0.62533538  0.93591490  0.20824416    -0.77800
O476        O  0.61754096  0.93956625  0.25737953    -1.13900
O477        O  0.66072979  0.98724354  0.23201274    -0.73100
C478        C  0.68343096  0.96661969  0.24072298     0.97600
C479        C  0.59401663  0.92215272  0.31138939     0.94000
Al480      Al  0.59196887  0.89661513  0.25770922     1.55600
O481        O  0.64502606  0.00579373  0.28108323    -0.77800
C482        C  0.61009172  0.90374248  0.20391286     0.98100
C483        C  0.64853524  0.85914872  0.27423121     0.93000
O484        O  0.65195819  0.88976680  0.28850823    -0.83100
O485        O  0.34649611  0.03049847  0.99276563    -0.82500
C486        C  0.40204826  0.18641054  0.00429661     0.96800
O487        O  0.41228900  0.15788639  0.99046939    -0.71700
O488        O  0.42134284  0.09150927  0.01622789    -0.75300
Al489      Al  0.39928725  0.10177462  0.98627692     1.49000
C490        C  0.41669932  0.06038064  0.02953247     0.92100
O491        O  0.35176795  0.09481531  0.05053280    -0.81500
O492        O  0.30274252  0.12217236  0.98995068    -0.75000
Al493      Al  0.34975105  0.06414218  0.02115884     1.90100
O494        O  0.32742032  0.14963544  0.03624115    -0.74100
O495        O  0.34905165  0.16223659  0.96571443    -0.74000
O496        O  0.37402003  0.18570053  0.01226953    -0.79600
O497        O  0.38172543  0.11284247  0.95501628    -0.77800
O498        O  0.36292464  0.10614357  0.00259582    -1.13900
O499        O  0.39395530  0.04342940  0.97815781    -0.73100
C500        C  0.36974829  0.02044072  0.97935464     0.97600
C501        C  0.33738709  0.12797126  0.05438711     0.94000
Al502      Al  0.34002526  0.15144517  0.00104257     1.55600
O503        O  0.39039254  0.04263178  0.02945183    -0.77800
C504        C  0.36467681  0.14275523  0.94918800     0.98100
C505        C  0.29035803  0.09299017  0.00214753     0.93000
O506        O  0.30602270  0.07397119  0.01827210    -0.83100
O507        O  0.42008924  0.03271389  0.75571776    -0.82500
C508        C  0.36741296  0.18973070  0.75097881     0.96800
O509        O  0.35749045  0.16146005  0.76516477    -0.71700
O510        O  0.34684445  0.09962503  0.73616041    -0.75300
Al511      Al  0.36908810  0.10440685  0.76634395     1.49000
C512        C  0.35044737  0.07056909  0.72101796     0.92100
O513        O  0.41689077  0.10526325  0.70219709    -0.81500
O514        O  0.46499635  0.12329977  0.76497473    -0.75000
Al515      Al  0.41791237  0.07057536  0.72959406     1.90100
O516        O  0.44356650  0.15602872  0.71911785    -0.74100
O517        O  0.41785936  0.16299711  0.78925161    -0.74000
O518        O  0.39533441  0.18935216  0.74275473    -0.79600
O519        O  0.38720332  0.11048017  0.79805655    -0.77800
O520        O  0.40540935  0.10998106  0.75023968    -1.13900
O521        O  0.37279362  0.04459146  0.77080197    -0.73100
C522        C  0.39627201  0.02081981  0.76777272     0.97600
C523        C  0.43356491  0.13687682  0.69992868     0.94000
Al524      Al  0.42874130  0.15462660  0.75392248     1.55600
O525        O  0.37646472  0.05204379  0.71962227    -0.77800
C526        C  0.40245358  0.14156499  0.80499558     0.98100
C527        C  0.47737753  0.09522113  0.75170464     0.93000
O528        O  0.46205673  0.07887954  0.73410452    -0.83100
O529        O  0.08690437  0.45451824  0.00009587    -0.82500
C530        C  0.21685920  0.45921629  0.00917264     0.96800
O531        O  0.19843647  0.47321207  0.02577639    -0.71700
O532        O  0.16425015  0.52206021  0.99802566    -0.75300
Al533      Al  0.15384751  0.48196775  0.02234159     1.49000
C534        C  0.14476278  0.53417328  0.98195270     0.92100
O535        O  0.14917430  0.44700513  0.94942250    -0.81500
O536        O  0.13309157  0.36338318  0.00268994    -0.75000
Al537      Al  0.11908717  0.45094271  0.97577812     1.90100
O538        O  0.17154032  0.39093855  0.96355161    -0.74100
O539        O  0.17287077  0.39448835  0.03679493    -0.74000
O540        O  0.20847636  0.42875948  0.99604537    -0.79600
O541        O  0.14344198  0.44625675  0.04854496    -0.77800
O542        O  0.14767365  0.44343276  0.99929262    -1.13900
O543        O  0.11074929  0.49915585  0.02434882    -0.73100
C544        C  0.08622055  0.48002751  0.01788026     0.97600
C545        C  0.16529648  0.41509615  0.94555513     0.94000
Al546      Al  0.17009100  0.39779385  0.99986720     1.55600
O547        O  0.12356565  0.51016152  0.97398483    -0.77800
C548        C  0.15618138  0.41256042  0.05334729     0.98100
C549        C  0.11082328  0.36371467  0.98691119     0.93000
O550        O  0.10746019  0.39406203  0.97239079    -0.83100
O551        O  0.18336445  0.44824576  0.23832259    -0.82500
C552        C  0.05179913  0.47111115  0.24260965     0.96800
O553        O  0.07020735  0.48672595  0.22661423    -0.71700
O554        O  0.11362300  0.52663293  0.25233322    -0.75300
Al555      Al  0.11546123  0.48775753  0.22563444     1.49000
C556        C  0.13727814  0.53345457  0.26598647     0.92100
O557        O  0.13028292  0.44694624  0.29530345    -0.81500
O558        O  0.12760155  0.36469375  0.24151561    -0.75000
Al559      Al  0.15535031  0.44714715  0.26631086     1.90100
O560        O  0.09695377  0.39847049  0.28442958    -0.74100
O561        O  0.08889575  0.40208397  0.21107538    -0.74000
O562        O  0.05980490  0.43912557  0.25417928    -0.79600
O563        O  0.11788699  0.45343720  0.19760554    -0.77800
O564        O  0.12185314  0.44622130  0.24655575    -1.13900
O565        O  0.15900232  0.49867708  0.21937844    -0.73100
C566        C  0.18351655  0.47760972  0.22285576     0.97600
C567        C  0.10862847  0.42220215  0.30098759     0.94000
Al568      Al  0.09522669  0.40430082  0.24767839     1.55600
O569        O  0.15719346  0.50554642  0.26994417    -0.77800
C570        C  0.10433068  0.41987000  0.19364436     0.98100
C571        C  0.15295814  0.36086007  0.25344073     0.93000
O572        O  0.16203940  0.38902209  0.26790048    -0.83100
O573        O  0.85674388  0.52890226  0.99985841    -0.82500
C574        C  0.89922807  0.69200679  0.99981067     0.96800
O575        O  0.90942783  0.66440614  0.98532279    -0.71700
O576        O  0.92669504  0.60548035  0.01460341    -0.75300
Al577      Al  0.90137329  0.60644558  0.98578003     1.49000
C578        C  0.92606551  0.57681164  0.03025926     0.92100
O579        O  0.85939014  0.60429285  0.05276036    -0.81500
O580        O  0.80437389  0.61518324  0.99357994    -0.75000
Al581      Al  0.85843809  0.56849979  0.02561394     1.90100
O582        O  0.82951678  0.65269842  0.03672511    -0.74100
O583        O  0.84608104  0.65709719  0.96488394    -0.74000
O584        O  0.87201419  0.68939329  0.00921106    -0.79600
O585        O  0.87993240  0.60837240  0.95548562    -0.77800
O586        O  0.86632832  0.60852758  0.00393466    -1.13900
O587        O  0.90132655  0.54696691  0.98201478    -0.73100
C588        C  0.88001643  0.52039092  0.98603845     0.97600
C589        C  0.84246338  0.63559332  0.05542852     0.94000
Al590      Al  0.83993081  0.65040334  0.00110814     1.55600
O591        O  0.90147881  0.55562237  0.03321923    -0.77800
C592        C  0.86143136  0.63623611  0.94880010     0.98100
C593        C  0.79529833  0.58678998  0.00814798     0.93000
O594        O  0.81397119  0.57157472  0.02384379    -0.83100
O595        O  0.92158484  0.52189929  0.75403930    -0.82500
C596        C  0.85820112  0.67428553  0.75000766     0.96800
O597        O  0.84875978  0.64237684  0.76111883    -0.71700
O598        O  0.84439155  0.57911532  0.73265036    -0.75300
Al599      Al  0.86466807  0.58771236  0.76351590     1.49000
C600        C  0.85069245  0.54975439  0.71831638     0.92100
O601        O  0.91315310  0.59503406  0.70048534    -0.81500
O602        O  0.95913253  0.61518100  0.76408024    -0.75000
Al603      Al  0.91678864  0.55993830  0.72771625     1.90100
O604        O  0.93579774  0.64852366  0.71835995    -0.74100
O605        O  0.91105037  0.64944141  0.78848583    -0.74000
O606        O  0.88675657  0.67815692  0.74360291    -0.79600
O607        O  0.88006601  0.59681877  0.79595632    -0.77800
O608        O  0.90098737  0.59768327  0.74848282    -1.13900
O609        O  0.87345547  0.52943306  0.76888247    -0.73100
C610        C  0.89843832  0.50819707  0.76640103     0.97600
C611        C  0.92718386  0.62898116  0.69880455     0.94000
Al612      Al  0.92174297  0.64430027  0.75333139     1.55600
O613        O  0.87796210  0.53502551  0.71763629    -0.77800
C614        C  0.89553380  0.62721933  0.80359445     0.98100
C615        C  0.97300536  0.58866246  0.75067915     0.93000
O616        O  0.95954728  0.57421761  0.73169413    -0.83100
O617        O  0.68804716  0.43670135  0.76430105    -0.82500
C618        C  0.56060780  0.45929530  0.74029929     0.96800
O619        O  0.58384034  0.47746395  0.73054346    -0.71700
O620        O  0.61709449  0.51595536  0.76400137    -0.75300
Al621      Al  0.62754128  0.47833653  0.73817183     1.49000
C622        C  0.63602269  0.52366102  0.78146328     0.92100
O623        O  0.61788492  0.43571614  0.80769964    -0.81500
O624        O  0.63707075  0.35523874  0.75352374    -0.75000
Al625      Al  0.65230873  0.43652823  0.78533105     1.90100
O626        O  0.59256684  0.38497181  0.78905739    -0.74100
O627        O  0.60821331  0.39256882  0.71649738    -0.74000
O628        O  0.56460400  0.42588434  0.75187558    -0.79600
O629        O  0.63850937  0.44617463  0.71081162    -0.77800
O630        O  0.62698895  0.43592194  0.75885492    -1.13900
O631        O  0.67192262  0.48779334  0.74085417    -0.73100
C632        C  0.69324499  0.46302564  0.74745664     0.97600
C633        C  0.59784463  0.40710721  0.80842055     0.94000
Al634      Al  0.60228779  0.39299250  0.75319259     1.55600
O635        O  0.65393466  0.49574272  0.78952425    -0.77800
C636        C  0.62792331  0.41254198  0.70327017     0.98100
C637        C  0.65670302  0.35096665  0.77102585     0.93000
O638        O  0.65824032  0.37791542  0.78803819    -0.83100
O639        O  0.59474967  0.43816795  0.50313667    -0.82500
C640        C  0.72461017  0.45905877  0.51814209     0.96800
O641        O  0.70296247  0.47539159  0.53117884    -0.71700
O642        O  0.66582328  0.51665232  0.50133484    -0.75300
Al643      Al  0.65803094  0.47702528  0.52667300     1.49000
C644        C  0.64591393  0.52417540  0.48454394     0.92100
O645        O  0.66048737  0.43542695  0.45519851    -0.81500
O646        O  0.64816990  0.35668748  0.51115521    -0.75000
Al647      Al  0.62867056  0.43705842  0.48023625     1.90100
O648        O  0.68639757  0.38388911  0.47176184    -0.74100
O649        O  0.68288364  0.39313585  0.54473214    -0.74000
O650        O  0.71898029  0.42724431  0.50532681    -0.79600
O651        O  0.64962268  0.44223931  0.55378865    -0.77800
O652        O  0.65659658  0.43603473  0.50486768    -1.13900
O653        O  0.61322425  0.48731393  0.52707167    -0.73100
C654        C  0.59059199  0.46495003  0.51988484     0.97600
C655        C  0.67907189  0.40553554  0.45281028     0.94000
Al656      Al  0.68234244  0.39353943  0.50793271     1.55600
O657        O  0.62800812  0.49606924  0.47653104    -0.77800
C658        C  0.66347188  0.40982708  0.55975805     0.98100
C659        C  0.62563305  0.35262823  0.49607281     0.93000
O660        O  0.62173582  0.37843236  0.47866000    -0.83100
O661        O  0.35625527  0.52319437  0.49265466    -0.82500
C662        C  0.40964413  0.68051330  0.49875309     0.96800
O663        O  0.41991757  0.65090601  0.48584636    -0.71700
O664        O  0.43035648  0.58770122  0.51301253    -0.75300
Al665      Al  0.40776372  0.59466218  0.48329976     1.49000
C666        C  0.42679597  0.55806301  0.52766166     0.92100
O667        O  0.36034459  0.59226957  0.54805263    -0.81500
O668        O  0.31257457  0.61331091  0.48557966    -0.75000
Al669      Al  0.35904078  0.55928607  0.51972552     1.90100
O670        O  0.33470591  0.64469752  0.53206355    -0.74100
O671        O  0.35836290  0.65410850  0.46169920    -0.74000
O672        O  0.38184832  0.68035338  0.50733833    -0.79600
O673        O  0.38944112  0.60267504  0.45190791    -0.77800
O674        O  0.37178884  0.59989643  0.49986052    -1.13900
O675        O  0.40327636  0.53585065  0.47723517    -0.73100
C676        C  0.37946406  0.51251588  0.47949102     0.97600
C677        C  0.34464072  0.62458400  0.55091889     0.94000
Al678      Al  0.34846529  0.64464580  0.49688515     1.55600
O679        O  0.40064046  0.53968911  0.52896909    -0.77800
C680        C  0.37379262  0.63361784  0.44557236     0.98100
C681        C  0.30012462  0.58417925  0.49775410     0.93000
O682        O  0.31473643  0.56809993  0.51577433    -0.83100
O683        O  0.42560236  0.52064370  0.26305095    -0.82500
C684        C  0.36537554  0.67240279  0.24635234     0.96800
O685        O  0.35645098  0.64409824  0.26081817    -0.71700
O686        O  0.34912295  0.57486455  0.23760570    -0.75300
Al687      Al  0.37131203  0.58957798  0.26677691     1.49000
C688        C  0.35462567  0.54277929  0.22527561     0.92100
O689        O  0.41977450  0.57716782  0.20253019    -0.81500
O690        O  0.46714412  0.61648290  0.26071448    -0.75000
Al691      Al  0.42184939  0.55078986  0.23328088     1.90100
O692        O  0.44011888  0.63658450  0.21391540    -0.74100
O693        O  0.42037734  0.65486439  0.28420564    -0.74000
O694        O  0.39317413  0.67296779  0.23789823    -0.79600
O695        O  0.38942106  0.60484862  0.29725547    -0.77800
O696        O  0.40730989  0.59439328  0.24984737    -1.13900
O697        O  0.37774167  0.53236918  0.27668998    -0.73100
C698        C  0.40205347  0.50977545  0.27581472     0.97600
C699        C  0.43200063  0.61110839  0.19700922     0.94000
Al700      Al  0.42857097  0.64147239  0.24926363     1.55600
O701        O  0.38162668  0.52685544  0.22552696    -0.77800
C702        C  0.40616246  0.63585119  0.30166674     0.98100
C703        C  0.48024788  0.58568440  0.25083806     0.93000
O704        O  0.46522925  0.56278973  0.23623360    -0.83100
C705        C  0.37558533  0.64654535  0.41914051    -0.06000
C706        C  0.34876006  0.65878408  0.40599244    -0.05900
C707        C  0.35037793  0.66479576  0.37997580    -0.24100
C708        C  0.37891613  0.65900920  0.36698954     0.18100
C709        C  0.40657933  0.65023941  0.38052086     0.15400
C710        C  0.40467903  0.64402631  0.40650698    -0.19100
C711        C  0.43521701  0.64501238  0.36760583    -0.20900
C712        C  0.43587794  0.64456632  0.34133089    -0.13500
C713        C  0.40796993  0.64952883  0.32784678     0.03200
C714        C  0.37985759  0.65868554  0.34066427    -0.25600
H715        H  0.32631985  0.66142131  0.41557306     0.08300
H716        H  0.32905741  0.67212674  0.36986979     0.11900
H717        H  0.42562285  0.63549049  0.41680561     0.11800
H718        H  0.45669132  0.63875485  0.37777882     0.11500
H719        H  0.45759450  0.63711276  0.33162483     0.12100
H720        H  0.35827191  0.66235555  0.33012150     0.14000
C721        C  0.55854393  0.47161288  0.52975985    -0.06000
C722        C  0.53536373  0.44133657  0.52649536    -0.05900
C723        C  0.50373224  0.45017429  0.53103133    -0.24100
C724        C  0.49480025  0.48975753  0.53829904     0.18100
C725        C  0.51822275  0.51940407  0.54356441     0.15400
C726        C  0.55004298  0.50979791  0.53983229    -0.19100
C727        C  0.50934152  0.55941130  0.54991329    -0.20900
C728        C  0.47793815  0.57116084  0.54791591    -0.13500
C729        C  0.45498466  0.54279368  0.54031809     0.03200
C730        C  0.46306622  0.50142446  0.53754164    -0.25600
H731        H  0.54155185  0.41133367  0.51925753     0.08300
H732        H  0.48618023  0.42699647  0.52712794     0.11900
H733        H  0.56778829  0.53324094  0.54246790     0.11800
H734        H  0.52689756  0.58242404  0.55415400     0.11500
H735        H  0.47199446  0.60327022  0.55005527     0.12100
H736        H  0.44547812  0.47967245  0.53127998     0.14000
C737        C  0.65557554  0.39223289  0.58452118    -0.06000
C738        C  0.62416276  0.38101265  0.58927771    -0.05900
C739        C  0.61305534  0.37615674  0.61389950    -0.24100
C740        C  0.63299562  0.38354551  0.63429710     0.18100
C741        C  0.66518368  0.39238440  0.62959592     0.15400
C742        C  0.67637167  0.39610647  0.60471911    -0.19100
C743        C  0.68505334  0.40075707  0.64981732    -0.20900
C744        C  0.67278145  0.40372557  0.67410625    -0.13500
C745        C  0.64047020  0.39781617  0.67886910     0.03200
C746        C  0.62086347  0.38569285  0.65905564    -0.25600
H747        H  0.60769298  0.37850876  0.57388327     0.08300
H748        H  0.58837869  0.36924770  0.61697107     0.11900
H749        H  0.70042384  0.40576199  0.60117265     0.11800
H750        H  0.70976725  0.40741461  0.64669433     0.11500
H751        H  0.68834826  0.41297363  0.68915364     0.12100
H752        H  0.59588028  0.38160355  0.66249698     0.14000
C753        C  0.72453370  0.46572331  0.73576319    -0.06000
C754        C  0.74826625  0.43782988  0.74225962    -0.05900
C755        C  0.77891781  0.44359442  0.73357472    -0.24100
C756        C  0.78629621  0.47791016  0.71895338     0.18100
C757        C  0.76202370  0.50413590  0.71064286     0.15400
C758        C  0.73114387  0.49716372  0.71857793    -0.19100
C759        C  0.76952590  0.53960667  0.69709017    -0.20900
C760        C  0.80073567  0.55242673  0.69554738    -0.13500
C761        C  0.82448236  0.52877078  0.70648051     0.03200
C762        C  0.81763956  0.48950070  0.71548585    -0.25600
H763        H  0.74341718  0.41254335  0.75482939     0.08300
H764        H  0.79725397  0.42290994  0.73980651     0.11900
H765        H  0.71278510  0.51833516  0.71302649     0.11800
H766        H  0.75117104  0.55979269  0.69035320     0.11500
H767        H  0.80589780  0.58288573  0.68860144     0.12100
H768        H  0.83614165  0.47152444  0.72416653     0.14000
C769        C  0.86046954  0.64525396  0.92177614    -0.06000
C770        C  0.83256870  0.64215086  0.90804973    -0.05900
C771        C  0.83372769  0.64084787  0.88172805    -0.24100
C772        C  0.86279807  0.64270566  0.86899979     0.18100
C773        C  0.89070613  0.64888691  0.88276194     0.15400
C774        C  0.88928955  0.65016221  0.90902824    -0.19100
C775        C  0.91973552  0.65150398  0.87010800    -0.20900
C776        C  0.92131640  0.64611790  0.84406017    -0.13500
C777        C  0.89397956  0.63740968  0.83048975     0.03200
C778        C  0.86468451  0.63668003  0.84293170    -0.25600
H779        H  0.81025764  0.63809246  0.91765336     0.08300
H780        H  0.81207816  0.63658155  0.87138672     0.11900
H781        H  0.91088485  0.65269436  0.91971292     0.11800
H782        H  0.94129304  0.65656904  0.88044433     0.11500
H783        H  0.94397467  0.64699763  0.83466434     0.12100
H784        H  0.84345667  0.63058258  0.83232928     0.14000
C785        C  0.21321866  0.49095993  0.21113893    -0.06000
C786        C  0.21619412  0.53180589  0.20309719    -0.05900
C787        C  0.24582348  0.54897140  0.19926767    -0.24100
C788        C  0.27275438  0.52543783  0.20343070     0.18100
C789        C  0.26987562  0.48299956  0.20832081     0.15400
C790        C  0.23996254  0.46585689  0.21192332    -0.19100
C791        C  0.29696782  0.45950797  0.21229363    -0.20900
C792        C  0.32609829  0.47883413  0.21481487    -0.13500
C793        C  0.32823234  0.52165725  0.21328398     0.03200
C794        C  0.30207651  0.54444176  0.20564576    -0.25600
H795        H  0.19582429  0.55160017  0.20195412     0.08300
H796        H  0.24766850  0.58136243  0.19505573     0.11900
H797        H  0.23773736  0.43411889  0.21763911     0.11800
H798        H  0.29526501  0.42684470  0.21560507     0.11500
H799        H  0.34619823  0.46079962  0.22052965     0.12100
H800        H  0.30387323  0.57750810  0.20411365     0.14000
C801        C  0.05611014  0.48904155  0.03008565    -0.06000
C802        C  0.03248708  0.45901041  0.03073111    -0.05900
C803        C  0.00180761  0.46950921  0.03731120    -0.24100
C804        C  0.99431720  0.51047543  0.04229582     0.18100
C805        C  0.01850923  0.54025995  0.04359123     0.15400
C806        C  0.04957267  0.52894667  0.03831921    -0.19100
C807        C  0.01078000  0.58160690  0.04705288    -0.20900
C808        C  0.97943142  0.59384128  0.04562357    -0.13500
C809        C  0.95563680  0.56461696  0.04193345     0.03200
C810        C  0.96288860  0.52283316  0.04265928    -0.25600
H811        H  0.03747202  0.42785044  0.02492921     0.08300
H812        H  0.98358809  0.44633887  0.03639305     0.11900
H813        H  0.06786371  0.55208449  0.03783286     0.11800
H814        H  0.02897847  0.60474004  0.04826105     0.11500
H815        H  0.97401053  0.62628085  0.04524333     0.12100
H816        H  0.94452534  0.50033429  0.03956982     0.14000
C817        C  0.10769116  0.40250910  0.16805034    -0.06000
C818        C  0.08166936  0.39909368  0.15213266    -0.05900
C819        C  0.08604957  0.39443457  0.12611417    -0.24100
C820        C  0.11652759  0.39312144  0.11567341     0.18100
C821        C  0.14280958  0.39324800  0.13177230     0.15400
C822        C  0.13818522  0.39800006  0.15783109    -0.19100
C823        C  0.17328267  0.39175169  0.12136057    -0.20900
C824        C  0.17777402  0.39342310  0.09524360    -0.13500
C825        C  0.15188635  0.39670089  0.07917552     0.03200
C826        C  0.12127170  0.39491492  0.08948076    -0.25600
H827        H  0.05811182  0.40307274  0.15956216     0.08300
H828        H  0.06560634  0.39411096  0.11402301     0.11900
H829        H  0.15841951  0.40100966  0.17006057     0.11800
H830        H  0.19371934  0.39163419  0.13346607     0.11500
H831        H  0.20144700  0.39553633  0.08774923     0.12100
H832        H  0.10116328  0.39798211  0.07714357     0.14000
C833        C  0.36476633  0.15500776  0.92259970    -0.06000
C834        C  0.33716497  0.15377572  0.90838213    -0.05900
C835        C  0.33886701  0.15503463  0.88208998    -0.24100
C836        C  0.36821085  0.15762711  0.86983640     0.18100
C837        C  0.39583897  0.16238125  0.88415428     0.15400
C838        C  0.39389620  0.16095054  0.91045482    -0.19100
C839        C  0.42511963  0.16583014  0.87191240    -0.20900
C840        C  0.42729149  0.16164159  0.84576583    -0.13500
C841        C  0.40028683  0.15343560  0.83167871     0.03200
C842        C  0.37066429  0.15302803  0.84367386    -0.25600
H843        H  0.31461858  0.14898808  0.91749672     0.08300
H844        H  0.31742420  0.15189798  0.87134248     0.11900
H845        H  0.41525227  0.16199738  0.92150529     0.11800
H846        H  0.44646052  0.17005243  0.88264738     0.11500
H847        H  0.45018271  0.16242163  0.83674564     0.12100
H848        H  0.34966657  0.14743017  0.83269704     0.14000
C849        C  0.54606176  0.96999231  0.03171463    -0.06000
C850        C  0.52299876  0.94210942  0.02361586    -0.05900
C851        C  0.49120071  0.95077772  0.02705662    -0.24100
C852        C  0.48216433  0.98801492  0.03795837     0.18100
C853        C  0.50523373  0.01456725  0.04807989     0.15400
C854        C  0.53710106  0.00463209  0.04561730    -0.19100
C855        C  0.49632461  0.05286869  0.05766604    -0.20900
C856        C  0.46573833  0.06693865  0.05401841    -0.13500
C857        C  0.44356215  0.04190093  0.04205492     0.03200
C858        C  0.45105844  0.00133412  0.03602309    -0.25600
H859        H  0.52950582  0.91469758  0.01332049     0.08300
H860        H  0.47382199  0.93003631  0.01934631     0.11900
H861        H  0.55479984  0.02612311  0.05202800     0.11800
H862        H  0.51363959  0.07345408  0.06562835     0.11500
H863        H  0.46003255  0.09836729  0.05873777     0.12100
H864        H  0.43392774  0.98234953  0.02642427     0.14000
C865        C  0.61302831  0.88649025  0.17811111    -0.06000
C866        C  0.58619650  0.88053472  0.16330185    -0.05900
C867        C  0.58887325  0.87754446  0.13702466    -0.24100
C868        C  0.61846634  0.88019687  0.12512763     0.18100
C869        C  0.64580677  0.88229703  0.14000682     0.15400
C870        C  0.64289110  0.88558782  0.16634884    -0.19100
C871        C  0.67544119  0.88422521  0.12816755    -0.20900
C872        C  0.67788267  0.88741024  0.10192527    -0.13500
C873        C  0.65075961  0.88911471  0.08706741     0.03200
C874        C  0.62111107  0.88391592  0.09876367    -0.25600
H875        H  0.56302363  0.88167011  0.17181704     0.08300
H876        H  0.56763183  0.87547416  0.12592106     0.11900
H877        H  0.66377720  0.89041935  0.17760664     0.11800
H878        H  0.69670531  0.88552198  0.13929232     0.11500
H879        H  0.70082937  0.89196999  0.09344807     0.12100
H880        H  0.59999422  0.88552580  0.08745835     0.14000
C881        C  0.21983416  0.98444069  0.72379986    -0.06000
C882        C  0.24325139  0.95451437  0.72686696    -0.05900
C883        C  0.27447827  0.96308833  0.72088130    -0.24100
C884        C  0.28282675  0.00211549  0.71232745     0.18100
C885        C  0.25909457  0.03134229  0.70723528     0.15400
C886        C  0.22750598  0.02187640  0.71240905    -0.19100
C887        C  0.26767152  0.07096885  0.69976203    -0.20900
C888        C  0.29915100  0.08301413  0.70082540    -0.13500
C889        C  0.32235172  0.05511083  0.70838469     0.03200
C890        C  0.31449661  0.01386304  0.71182862    -0.25600
H891        H  0.23760927  0.92499880  0.73505418     0.08300
H892        H  0.29229611  0.94029009  0.72472478     0.11900
H893        H  0.20949422  0.04494819  0.70990907     0.11800
H894        H  0.24990726  0.09365517  0.69557789     0.11500
H895        H  0.30500058  0.11505076  0.69815252     0.12100
H896        H  0.33234559  0.99251287  0.71803387     0.14000
C897        C  0.13578614  0.89243504  0.67169654    -0.06000
C898        C  0.16836366  0.89440336  0.66707220    -0.05900
C899        C  0.18044667  0.89106480  0.64269695    -0.24100
C900        C  0.16011893  0.88647696  0.62228601     0.18100
C901        C  0.12740654  0.88168571  0.62684532     0.15400
C902        C  0.11543245  0.88418558  0.65162750    -0.19100
C903        C  0.10702695  0.87811486  0.60636141    -0.20900
C904        C  0.11845242  0.88294371  0.58185273    -0.13500
C905        C  0.15054038  0.89053370  0.57723553     0.03200
C906        C  0.17155861  0.89028708  0.59745081    -0.25600
H907        H  0.18438191  0.90120698  0.68228822     0.08300
H908        H  0.20555567  0.89471922  0.63968974     0.11900
H909        H  0.09022776  0.88357602  0.65496509     0.11800
H910        H  0.08193204  0.87431292  0.60933783     0.11500
H911        H  0.10184869  0.88352039  0.56648304     0.12100
H912        H  0.19621315  0.89714073  0.59407266     0.14000
C913        C  0.71545077  0.97113072  0.23017399    -0.06000
C914        C  0.73904620  0.94305208  0.23678845    -0.05900
C915        C  0.77043826  0.95053331  0.23053757    -0.24100
C916        C  0.77880425  0.98667910  0.21802617     0.18100
C917        C  0.75501585  0.01368922  0.20972162     0.15400
C918        C  0.72337846  0.00522901  0.21535814    -0.19100
C919        C  0.76347456  0.05066482  0.19814563    -0.20900
C920        C  0.79492941  0.06301603  0.19769177    -0.13500
C921        C  0.81834543  0.03781787  0.20785929     0.03200
C922        C  0.81048523  0.99836505  0.21618170    -0.25600
H923        H  0.73339260  0.91604866  0.24774314     0.08300
H924        H  0.78831760  0.92939269  0.23691457     0.11900
H925        H  0.70532786  0.02694401  0.21005295     0.11800
H926        H  0.74560327  0.07164799  0.19155103     0.11500
H927        H  0.80066662  0.09371837  0.19146306     0.12100
H928        H  0.82845533  0.97926945  0.22458051     0.14000
C929        C  0.95432563  0.04972074  0.53180590    -0.06000
C930        C  0.97708688  0.07897414  0.53838618    -0.05900
C931        C  0.00858356  0.06776333  0.54045914    -0.24100
C932        C  0.01768320  0.02749160  0.53501609     0.18100
C933        C  0.99443404  0.99731707  0.53033940     0.15400
C934        C  0.96270054  0.00845791  0.52963039    -0.19100
C935        C  0.00346978  0.95752498  0.52376295    -0.20900
C936        C  0.03508117  0.94865296  0.51957579    -0.13500
C937        C  0.05811135  0.97918599  0.52249858     0.03200
C938        C  0.04951992  0.01786769  0.53167766    -0.25600
H939        H  0.97080089  0.11104196  0.53997849     0.08300
H940        H  0.02602833  0.09123495  0.54416857     0.11900
H941        H  0.94514798  0.98607038  0.52404146     0.11800
H942        H  0.98598170  0.93401269  0.52020437     0.11500
H943        H  0.04141186  0.91836549  0.51295268     0.12100
H944        H  0.06725644  0.04151706  0.53394371     0.14000
C945        C  0.86043252  0.14775840  0.41654594    -0.06000
C946        C  0.83307354  0.14240212  0.40245088    -0.05900
C947        C  0.83471099  0.14330899  0.37622335    -0.24100
C948        C  0.86381988  0.14905545  0.36406991     0.18100
C949        C  0.89104793  0.15727052  0.37829606     0.15400
C950        C  0.88905616  0.15687303  0.40451583    -0.19100
C951        C  0.92015819  0.16286179  0.36610542    -0.20900
C952        C  0.92264330  0.15768549  0.34007156    -0.13500
C953        C  0.89607640  0.14670321  0.32617317     0.03200
C954        C  0.86654872  0.14403010  0.33809354    -0.25600
H955        H  0.81101975  0.13481186  0.41163814     0.08300
H956        H  0.81364951  0.13720522  0.36548662     0.11900
H957        H  0.91019099  0.16061956  0.41561204     0.11800
H958        H  0.94115839  0.16945953  0.37680673     0.11500
H959        H  0.94546556  0.16007563  0.33103371     0.12100
H960        H  0.84589002  0.13620225  0.32722292     0.14000
C961        C  0.94094058  0.65519303  0.57882983    -0.06000
C962        C  0.94229058  0.61325812  0.58429157    -0.05900
C963        C  0.94196752  0.60004233  0.60922166    -0.24100
C964        C  0.94036496  0.62863955  0.62890463     0.18100
C965        C  0.94062827  0.67097289  0.62359750     0.15400
C966        C  0.94102537  0.68393929  0.59858140    -0.19100
C967        C  0.93922765  0.69950616  0.64337105    -0.20900
C968        C  0.93615590  0.68613055  0.66821715    -0.13500
C969        C  0.93427966  0.64413326  0.67342504     0.03200
C970        C  0.93728877  0.61558564  0.65374608    -0.25600
H971        H  0.94209950  0.59075118  0.56933297     0.08300
H972        H  0.94193154  0.56743115  0.61309670     0.11900
H973        H  0.94027848  0.71647643  0.59446703     0.11800
H974        H  0.93960575  0.73212920  0.63955627     0.11500
H975        H  0.93397821  0.70845909  0.68317917     0.12100
H976        H  0.93639065  0.58299524  0.65772327     0.14000
C977        C  0.01065076  0.72118704  0.48870492    -0.06000
C978        C  0.01337735  0.73774645  0.46446563    -0.05900
C979        C  0.03752317  0.76568979  0.45869604    -0.24100
C980        C  0.05947907  0.77734265  0.47705292     0.18100
C981        C  0.05817786  0.75842123  0.50091657     0.15400
C982        C  0.03377499  0.73073014  0.50659392    -0.19100
C983        C  0.08024650  0.76921214  0.51921531    -0.20900
C984        C  0.10256554  0.79967098  0.51439316    -0.13500
C985        C  0.10319690  0.82056570  0.49127071     0.03200
C986        C  0.08179776  0.80868221  0.47243011    -0.25600
H987        H  0.99539769  0.73163967  0.45061485     0.08300
H988        H  0.03815469  0.77957917  0.44022358     0.11900
H989        H  0.03155483  0.71856234  0.52548351     0.11800
H990        H  0.07971804  0.75486406  0.53756852     0.11500
H991        H  0.11857951  0.80810102  0.52929760     0.12100
H992        H  0.08206791  0.82432439  0.45448093     0.14000
C993        C  0.87488481  0.97126517  0.46636519    -0.06000
C994        C  0.84641365  0.94931557  0.46526316    -0.05900
C995        C  0.84635096  0.90666672  0.46352939    -0.24100
C996        C  0.87479219  0.88512235  0.46331180     0.18100
C997        C  0.90357068  0.90697140  0.46247196     0.15400
C998        C  0.90342405  0.95005232  0.46349735    -0.19100
C999        C  0.93200058  0.88530136  0.46289239    -0.20900
C1000       C  0.93192148  0.84291137  0.46653811    -0.13500
C1001       C  0.90341747  0.82140402  0.46938669     0.03200
C1002       C  0.87491270  0.84238400  0.46621166    -0.25600
H1003       H  0.82411642  0.96504349  0.46730114     0.08300
H1004       H  0.82407832  0.89047516  0.46404939     0.11900
H1005       H  0.92549332  0.96663542  0.46461078     0.11800
H1006       H  0.95429458  0.90139418  0.46207678     0.11500
H1007       H  0.95422297  0.82730600  0.46866471     0.12100
H1008       H  0.85279472  0.82617385  0.46851257     0.14000
C1009       C  0.75626521  0.47882380  0.51723751    -0.06000
C1010       C  0.78054453  0.46296176  0.50200120    -0.05900
C1011       C  0.80885555  0.48458515  0.49871575    -0.24100
C1012       C  0.81339512  0.52275258  0.51041177     0.18100
C1013       C  0.78958455  0.53816430  0.52650387     0.15400
C1014       C  0.76148271  0.51605527  0.52996577    -0.19100
C1015       C  0.79354885  0.57648838  0.53795226    -0.20900
C1016       C  0.81997909  0.60035217  0.53250075    -0.13500
C1017       C  0.84333660  0.58619607  0.51591638     0.03200
C1018       C  0.84042928  0.54678743  0.50536732    -0.25600
H1019       H  0.77729717  0.43437348  0.49198024     0.08300
H1020       H  0.82677389  0.47207600  0.48636563     0.11900
H1021       H  0.74307835  0.52889027  0.54175538     0.11800
H1022       H  0.77554735  0.58880611  0.55032198     0.11500
H1023       H  0.82164687  0.63082071  0.54050939     0.12100
H1024       H  0.85807325  0.53604533  0.49213769     0.14000
C1025       C  0.83897807  0.65920540  0.17596079    -0.06000
C1026       C  0.83321950  0.61803263  0.16995037    -0.05900
C1027       C  0.83115219  0.60575184  0.14489513    -0.24100
C1028       C  0.83444153  0.63456376  0.12555085     0.18100
C1029       C  0.83934983  0.67629642  0.13139315     0.15400
C1030       C  0.84183355  0.68827081  0.15657094    -0.19100
C1031       C  0.84216901  0.70512659  0.11192509    -0.20900
C1032       C  0.84121179  0.69243014  0.08682106    -0.13500
C1033       C  0.83774200  0.65079034  0.08105777     0.03200
C1034       C  0.83375142  0.62215672  0.10044595    -0.25600
H1035       H  0.83092050  0.59525795  0.18460628     0.08300
H1036       H  0.82727653  0.57363683  0.14063335     0.11900
H1037       H  0.84592876  0.72026202  0.16107090     0.11800
H1038       H  0.84584202  0.73729628  0.11612040     0.11500
H1039       H  0.84472572  0.71467745  0.07200254     0.12100
H1040       H  0.83101348  0.58990217  0.09591312     0.14000
C1041       C  0.75599444  0.71974592  0.25561228    -0.06000
C1042       C  0.73556711  0.72076911  0.23497664    -0.05900
C1043       C  0.70838162  0.74492671  0.23551946    -0.24100
C1044       C  0.70165364  0.76963704  0.25645583     0.18100
C1045       C  0.72168513  0.76805601  0.27758507     0.15400
C1046       C  0.74846146  0.74261094  0.27719682    -0.19100
C1047       C  0.71572152  0.79387413  0.29812493    -0.20900
C1048       C  0.69100406  0.82206650  0.29733755    -0.13500
C1049       C  0.67136797  0.82479716  0.27618907     0.03200
C1050       C  0.67636409  0.79757788  0.25601777    -0.25600
H1051       H  0.74155343  0.70439102  0.21788500     0.08300
H1052       H  0.69354824  0.74590626  0.21907271     0.11900
H1053       H  0.76479080  0.74329327  0.29272921     0.11800
H1054       H  0.73081029  0.79330052  0.31439556     0.11500
H1055       H  0.68778327  0.84264345  0.31315632     0.12100
H1056       H  0.66180211  0.79973393  0.23945854     0.14000
C1057       C  0.89150667  0.97331446  0.27877938    -0.06000
C1058       C  0.91968627  0.95142468  0.28189783    -0.05900
C1059       C  0.91903874  0.90966207  0.28714585    -0.24100
C1060       C  0.89027103  0.88899222  0.28884296     0.18100
C1061       C  0.86177385  0.91122230  0.28734174     0.15400
C1062       C  0.86261289  0.95354219  0.28291255    -0.19100
C1063       C  0.83303906  0.89015569  0.28793281    -0.20900
C1064       C  0.83262053  0.84738821  0.28745780    -0.13500
C1065       C  0.86095345  0.82522191  0.28718021     0.03200
C1066       C  0.88957510  0.84618967  0.28954531    -0.25600
H1067       H  0.94218285  0.96615856  0.27895701     0.08300
H1068       H  0.94114673  0.89302506  0.28823734     0.11900
H1069       H  0.84076285  0.97018643  0.28026474     0.11800
H1070       H  0.81091817  0.90669481  0.28685449     0.11500
H1071       H  0.81030292  0.83169707  0.28562859     0.12100
H1072       H  0.91161494  0.82926192  0.28893104     0.14000
C1073       C  0.89482935  0.64240824  0.42388757    -0.06000
C1074       C  0.91866142  0.62483139  0.40915099    -0.05900
C1075       C  0.91388558  0.61864902  0.38336974    -0.24100
C1076       C  0.88524951  0.62998699  0.37221773     0.18100
C1077       C  0.86040771  0.64471487  0.38742607     0.15400
C1078       C  0.86528205  0.65027952  0.41313770    -0.19100
C1079       C  0.83191993  0.65670211  0.37641943    -0.20900
C1080       C  0.82901183  0.65750934  0.35029815    -0.13500
C1081       C  0.85422191  0.64530328  0.33504944     0.03200
C1082       C  0.88180308  0.62997740  0.34602760    -0.25600
H1083       H  0.94139349  0.61809108  0.41723113     0.08300
H1084       H  0.93305991  0.60695165  0.37196341     0.11900
H1085       H  0.84650661  0.66296440  0.42462557     0.11800
H1086       H  0.81269700  0.66803224  0.38792556     0.11500
H1087       H  0.80800238  0.67033140  0.34200219     0.12100
H1088       H  0.90153790  0.62152185  0.33410654     0.14000
C1089       C  0.92715289  0.58880227  0.25059227    -0.06000
C1090       C  0.93660044  0.58509248  0.22538641    -0.05900
C1091       C  0.96242306  0.56073175  0.21867267    -0.24100
C1092       C  0.97885317  0.53858854  0.23697343     0.18100
C1093       C  0.96869274  0.54053485  0.26230364     0.15400
C1094       C  0.94332792  0.56637278  0.26906239    -0.19100
C1095       C  0.98442454  0.51703617  0.28039234    -0.20900
C1096       C  0.01032192  0.49272196  0.27359704    -0.13500
C1097       C  0.02158507  0.49210288  0.24870119     0.03200
C1098       C  0.00552826  0.51507614  0.23043280    -0.25600
H1099       H  0.92471443  0.60246142  0.21095484     0.08300
H1100       H  0.96971498  0.55949951  0.19914581     0.11900
H1101       H  0.93620295  0.56912445  0.28858691     0.11800
H1102       H  0.97692565  0.51781125  0.29988264     0.11500
H1103       H  0.02244563  0.47573996  0.28807043     0.12100
H1104       H  0.01395476  0.51487451  0.21116454     0.14000
C1105       C  0.18821928  0.90075823  0.42031902    -0.06000
C1106       C  0.18856074  0.85957665  0.41271350    -0.05900
C1107       C  0.18967378  0.84935711  0.38717615    -0.24100
C1108       C  0.19076577  0.88015998  0.36881196     0.18100
C1109       C  0.19245119  0.92164734  0.37624665     0.15400
C1110       C  0.19098762  0.93168575  0.40196264    -0.19100
C1111       C  0.19379531  0.95235628  0.35776864    -0.20900
C1112       C  0.19145895  0.94220945  0.33222433    -0.13500
C1113       C  0.18749697  0.90124971  0.32481952     0.03200
C1114       C  0.18834663  0.87028747  0.34320537    -0.25600
H1115       H  0.18579565  0.83536135  0.42642953     0.08300
H1116       H  0.18837164  0.81736749  0.38176218     0.11900
H1117       H  0.19043512  0.96360071  0.40766339     0.11800
H1118       H  0.19528560  0.98435182  0.36312181     0.11500
H1119       H  0.19057805  0.96652941  0.31843915     0.12100
H1120       H  0.18535487  0.83853132  0.33764244     0.14000
C1121       C  0.10165460  0.97536225  0.25012436    -0.06000
C1122       C  0.09693400  0.99098194  0.22585321    -0.05900
C1123       C  0.07223202  0.01812114  0.22107557    -0.24100
C1124       C  0.05202416  0.03065338  0.24055188     0.18100
C1125       C  0.05764860  0.01715570  0.26533282     0.15400
C1126       C  0.08224656  0.98929785  0.26992275    -0.19100
C1127       C  0.03773203  0.03047583  0.28486285    -0.20900
C1128       C  0.01158639  0.05518610  0.27971310    -0.13500
C1129       C  0.00471301  0.06651873  0.25492858     0.03200
C1130       C  0.02548193  0.05490180  0.23550200    -0.25600
H1131       H  0.11134399  0.98051991  0.21028013     0.08300
H1132       H  0.06837329  0.02837635  0.20197364     0.11900
H1133       H  0.08571599  0.97753048  0.28875438     0.11800
H1134       H  0.04175467  0.02062278  0.30402031     0.11500
H1135       H  0.99563089  0.06323990  0.29485273     0.12100
H1136       H  0.02020596  0.06338877  0.21627491     0.14000
C1137       C  0.94487127  0.76782674  0.22667658    -0.06000
C1138       C  0.94632325  0.81069947  0.22859369    -0.05900
C1139       C  0.97544504  0.83067061  0.22841270    -0.24100
C1140       C  0.00328833  0.80785956  0.22628600     0.18100
C1141       C  0.00153979  0.76500605  0.22240319     0.15400
C1142       C  0.97238025  0.74541250  0.22240103    -0.19100
C1143       C  0.02902955  0.74188483  0.22026307    -0.20900
C1144       C  0.05812446  0.76063903  0.22308141    -0.13500
C1145       C  0.06024987  0.80281013  0.22820541     0.03200
C1146       C  0.03277682  0.82658239  0.22928322    -0.25600
H1147       H  0.92521559  0.82837207  0.23224768     0.08300
H1148       H  0.97625715  0.86352302  0.23125627     0.11900
H1149       H  0.97121532  0.71227246  0.22095059     0.11800
H1150       H  0.02801122  0.70903534  0.21732593     0.11500
H1151       H  0.07897494  0.74162127  0.22242321     0.12100
H1152       H  0.03430800  0.85911007  0.23324576     0.14000
C1153       C  0.25639637  0.81300774  0.23708512    -0.06000
C1154       C  0.27956220  0.82655824  0.25397309    -0.05900
C1155       C  0.30712521  0.80363620  0.25780399    -0.24100
C1156       C  0.31206322  0.76645862  0.24496857     0.18100
C1157       C  0.28956858  0.75346762  0.22717934     0.15400
C1158       C  0.26221937  0.77686428  0.22321791    -0.19100
C1159       C  0.29401934  0.71622050  0.21445191    -0.20900
C1160       C  0.31967952  0.69114052  0.22006735    -0.13500
C1161       C  0.34176868  0.70295470  0.23817658     0.03200
C1162       C  0.33823231  0.74113512  0.25030826    -0.25600
H1163       H  0.27587707  0.85415011  0.26491099     0.08300
H1164       H  0.32410205  0.81433620  0.27143730     0.11900
H1165       H  0.24477189  0.76581717  0.21005577     0.11800
H1166       H  0.27701835  0.70574635  0.20075908     0.11500
H1167       H  0.32179666  0.66169573  0.21079063     0.12100
H1168       H  0.35493094  0.75014613  0.26461527     0.14000
C1169       C  0.14397377  0.57524798  0.27487557    -0.06000
C1170       C  0.17543698  0.58829421  0.27641457    -0.05900
C1171       C  0.18261337  0.62968441  0.27941604    -0.24100
C1172       C  0.15843203  0.65857006  0.28124153     0.18100
C1173       C  0.12672694  0.64524633  0.28209870     0.15400
C1174       C  0.11966568  0.60360331  0.27871205    -0.19100
C1175       C  0.10261320  0.67415237  0.28458702    -0.20900
C1176       C  0.10962942  0.71590600  0.28390477    -0.13500
C1177       C  0.14081073  0.72927286  0.28041419     0.03200
C1178       C  0.16527034  0.70056016  0.28031043    -0.25600
H1179       H  0.19453596  0.56686632  0.27354096     0.08300
H1180       H  0.20705833  0.63928657  0.27905662     0.11900
H1181       H  0.09534301  0.59356744  0.27780305     0.11800
H1182       H  0.07820024  0.66453466  0.28561704     0.11500
H1183       H  0.09038904  0.73759879  0.28390555     0.12100
H1184       H  0.18938293  0.71080019  0.27773704     0.14000
C1185       C  0.09177018  0.89992837  0.82713526    -0.06000
C1186       C  0.09020775  0.85864094  0.83436251    -0.05900
C1187       C  0.08462832  0.84817558  0.85938848    -0.24100
C1188       C  0.08041198  0.87886960  0.87752278     0.18100
C1189       C  0.07967043  0.92042757  0.87015116     0.15400
C1190       C  0.08533585  0.93071984  0.84493258    -0.19100
C1191       C  0.07539578  0.95099622  0.88841977    -0.20900
C1192       C  0.07483211  0.94073411  0.91393486    -0.13500
C1193       C  0.07840303  0.89976641  0.92144174     0.03200
C1194       C  0.07932132  0.86882325  0.90306313    -0.25600
H1195       H  0.09522376  0.83449274  0.82095852     0.08300
H1196       H  0.08513414  0.81616261  0.86475034     0.11900
H1197       H  0.08633158  0.96266122  0.83940041     0.11800
H1198       H  0.07438698  0.98299446  0.88308052     0.11500
H1199       H  0.07405557  0.96508851  0.92775502     0.12100
H1200       H  0.08176189  0.83705738  0.90867146     0.14000
C1201       C  0.00953170  0.82993668  0.00982408    -0.06000
C1202       C  0.99190374  0.83788638  0.98805679    -0.05900
C1203       C  0.96514588  0.81453220  0.98236517    -0.24100
C1204       C  0.95524607  0.78293040  0.99843274     0.18100
C1205       C  0.97160370  0.77641872  0.02116082     0.15400
C1206       C  0.99861835  0.79975545  0.02663433    -0.19100
C1207       C  0.96151091  0.74536849  0.03751647    -0.20900
C1208       C  0.93640787  0.71986193  0.03096088    -0.13500
C1209       C  0.92106184  0.72461149  0.00788777     0.03200
C1210       C  0.93022006  0.75660931  0.99175996    -0.25600
H1211       H  0.99979040  0.86070726  0.97467430     0.08300
H1212       H  0.95281291  0.82031152  0.96496397     0.11900
H1213       H  0.01188154  0.79325392  0.04351186     0.11800
H1214       H  0.97366117  0.73996542  0.05504923     0.11500
H1215       H  0.92991087  0.69497275  0.04340732     0.12100
H1216       H  0.91862672  0.76008598  0.97379525     0.14000
C1217       C  0.14473324  0.57787129  0.97486527    -0.06000
C1218       C  0.17303980  0.60004197  0.97352024    -0.05900
C1219       C  0.17272264  0.64277666  0.97133734    -0.24100
C1220       C  0.14408278  0.66413838  0.97140534     0.18100
C1221       C  0.11549364  0.64192311  0.97237952     0.15400
C1222       C  0.11602654  0.59894172  0.97346192    -0.19100
C1223       C  0.08689429  0.66312162  0.97387275    -0.20900
C1224       C  0.08661553  0.70581393  0.97566054    -0.13500
C1225       C  0.11484972  0.72818674  0.97517224     0.03200
C1226       C  0.14352087  0.70724124  0.97217576    -0.25600
H1227       H  0.19538372  0.58433230  0.97486491     0.08300
H1228       H  0.19489310  0.65922958  0.97079259     0.11900
H1229       H  0.09409748  0.58207882  0.97520385     0.11800
H1230       H  0.06477123  0.64658344  0.97485393     0.11500
H1231       H  0.06435628  0.72137899  0.97822445     0.12100
H1232       H  0.16545740  0.72427760  0.97245215     0.14000
C1233       C  0.10798134  0.90761903  0.08056594    -0.06000
C1234       C  0.08297509  0.90378025  0.09769234    -0.05900
C1235       C  0.08883442  0.90110959  0.12353493    -0.24100
C1236       C  0.11982682  0.90216723  0.13260233     0.18100
C1237       C  0.14494409  0.90924527  0.11567492     0.15400
C1238       C  0.13882398  0.91187158  0.08976533    -0.19100
C1239       C  0.17591656  0.91072140  0.12479168    -0.20900
C1240       C  0.18214010  0.90309037  0.15021306    -0.13500
C1241       C  0.15754110  0.89325924  0.16679020     0.03200
C1242       C  0.12633165  0.89388744  0.15798456    -0.25600
H1243       H  0.05923302  0.89924678  0.09095238     0.08300
H1244       H  0.06926361  0.89588651  0.13629092     0.11900
H1245       H  0.15830411  0.91383888  0.07654751     0.11800
H1246       H  0.19545719  0.91633811  0.11207158     0.11500
H1247       H  0.20625937  0.90264945  0.15662235     0.12100
H1248       H  0.10718430  0.88651050  0.17078577     0.14000
C1249       C  0.17070870  0.97481796  0.98230081    -0.06000
C1250       C  0.19083474  0.97454981  0.96114614    -0.05900
C1251       C  0.21643635  0.00134361  0.95938590    -0.24100
C1252       C  0.22275523  0.02913253  0.97877790     0.18100
C1253       C  0.20228618  0.03073045  0.99984023     0.15400
C1254       C  0.17629220  0.00377343  0.00141586    -0.19100
C1255       C  0.20910528  0.05791777  0.01950764    -0.20900
C1256       C  0.23664511  0.08150851  0.01894799    -0.13500
C1257       C  0.25759535  0.07923405  0.99848577     0.03200
C1258       C  0.25012104  0.05365337  0.97812417    -0.25600
H1259       H  0.18725844  0.95278904  0.94605173     0.08300
H1260       H  0.23182056  0.99951750  0.94310881     0.11900
H1261       H  0.16126629  0.00419988  0.01794678     0.11800
H1262       H  0.19391489  0.05950346  0.03591739     0.11500
H1263       H  0.24255987  0.09991242  0.03519800     0.12100
H1264       H  0.26682898  0.05039964  0.96275783     0.14000
C1265       C  0.34157448  0.64428550  0.67178792    -0.06000
C1266       C  0.33905094  0.60260020  0.66575479    -0.05900
C1267       C  0.33641619  0.59043863  0.64059720    -0.24100
C1268       C  0.33616670  0.61986796  0.62132271     0.18100
C1269       C  0.33692272  0.66190332  0.62744764     0.15400
C1270       C  0.33949151  0.67372390  0.65256748    -0.19100
C1271       C  0.33643625  0.69144531  0.60829748    -0.20900
C1272       C  0.33698211  0.67944085  0.58309732    -0.13500
C1273       C  0.33814979  0.63779316  0.57684973     0.03200
C1274       C  0.33664066  0.60811801  0.59602508    -0.25600
H1275       H  0.34042323  0.57955990  0.68030565     0.08300
H1276       H  0.33558470  0.55801758  0.63615305     0.11900
H1277       H  0.34081842  0.70611279  0.65711563     0.11800
H1278       H  0.33681293  0.72385286  0.61281955     0.11500
H1279       H  0.33819467  0.70259116  0.56858531     0.12100
H1280       H  0.33715322  0.57578565  0.59123880     0.14000
C1281       C  0.44396754  0.58957480  0.74280724    -0.06000
C1282       C  0.47181404  0.60831568  0.73429241    -0.05900
C1283       C  0.49898916  0.58552862  0.72995142    -0.24100
C1284       C  0.49928250  0.54334887  0.73458312     0.18100
C1285       C  0.47138971  0.52345157  0.74252514     0.15400
C1286       C  0.44349602  0.54666804  0.74617675    -0.19100
C1287       C  0.47253505  0.48119337  0.74776249    -0.20900
C1288       C  0.50119853  0.45962387  0.74635866    -0.13500
C1289       C  0.52914474  0.47961655  0.73909092     0.03200
C1290       C  0.52754741  0.52134679  0.73250855    -0.25600
H1291       H  0.47271766  0.64117645  0.73143660     0.08300
H1292       H  0.52014762  0.60123673  0.72383802     0.11900
H1293       H  0.42223828  0.53194499  0.75293674     0.11800
H1294       H  0.45152068  0.46514647  0.75380297     0.11500
H1295       H  0.50161925  0.42752115  0.75145394     0.12100
H1296       H  0.54878159  0.53752160  0.72701387     0.14000
C1297       C  0.19117959  0.83169505  0.76649627    -0.06000
C1298       C  0.21790631  0.84153323  0.78088825    -0.05900
C1299       C  0.24330364  0.81463390  0.78262289    -0.24100
C1300       C  0.24275017  0.77694044  0.77008206     0.18100
C1301       C  0.21595295  0.76588729  0.75594013     0.15400
C1302       C  0.19028593  0.79338054  0.75417685    -0.19100
C1303       C  0.21599115  0.72824295  0.74304046    -0.20900
C1304       C  0.24288950  0.70323683  0.74292338    -0.13500
C1305       C  0.26986734  0.71475827  0.75631193     0.03200
C1306       C  0.26926984  0.75117888  0.77038265    -0.25600
H1307       H  0.21958838  0.87072947  0.79047278     0.08300
H1308       H  0.26371575  0.82375303  0.79341732     0.11900
H1309       H  0.16997275  0.78526398  0.74299344     0.11800
H1310       H  0.19580241  0.71910122  0.73201199     0.11500
H1311       H  0.24329330  0.67609440  0.73120989     0.12100
H1312       H  0.29043884  0.76102644  0.77998473     0.14000
C1313       C  0.39567582  0.97735400  0.77558075    -0.06000
C1314       C  0.42441742  0.95659596  0.77852964    -0.05900
C1315       C  0.42544719  0.91394133  0.77971031    -0.24100
C1316       C  0.39772421  0.89102692  0.77776316     0.18100
C1317       C  0.36848318  0.91149544  0.77587372     0.15400
C1318       C  0.36757896  0.95463186  0.77511005    -0.19100
C1319       C  0.34088296  0.88838578  0.77326856    -0.20900
C1320       C  0.34240676  0.84570662  0.77131055    -0.13500
C1321       C  0.37150909  0.82519446  0.77219564     0.03200
C1322       C  0.39901543  0.84806876  0.77623839    -0.25600
H1323       H  0.44643233  0.97341127  0.77872298     0.08300
H1324       H  0.44804368  0.89886728  0.78105605     0.11900
H1325       H  0.34539734  0.97021455  0.77220774     0.11800
H1326       H  0.31825050  0.90337952  0.77171554     0.11500
H1327       H  0.32085346  0.82884009  0.76806945     0.12100
H1328       H  0.42161678  0.83276693  0.77646897     0.14000
C1329       C  0.42055176  0.67648422  0.08277006    -0.06000
C1330       C  0.41468160  0.70879839  0.09976616    -0.05900
C1331       C  0.41840421  0.70341652  0.12549903    -0.24100
C1332       C  0.42768785  0.66543781  0.13487884     0.18100
C1333       C  0.43397001  0.63274596  0.11801585     0.15400
C1334       C  0.43074552  0.63861455  0.09200553    -0.19100
C1335       C  0.44239824  0.59441182  0.12754707    -0.20900
C1336       C  0.44317574  0.58809064  0.15344363    -0.13500
C1337       C  0.43628350  0.62020556  0.17022539     0.03200
C1338       C  0.42950511  0.65917402  0.16088276    -0.25600
H1339       H  0.40718205  0.73857044  0.09316250     0.08300
H1340       H  0.41345174  0.72877957  0.13808641     0.11900
H1341       H  0.43530157  0.61355799  0.07908988     0.11800
H1342       H  0.44731413  0.56898261  0.11501253     0.11500
H1343       H  0.44842604  0.55772177  0.16043402     0.12100
H1344       H  0.42367117  0.68380110  0.17380436     0.14000
C1345       C  0.24672826  0.48154505  0.00371459    -0.06000
C1346       C  0.25579660  0.48832109  0.97861658    -0.05900
C1347       C  0.27996060  0.51605200  0.97265783    -0.24100
C1348       C  0.29615421  0.53697997  0.99172285     0.18100
C1349       C  0.28845541  0.52873617  0.01709866     0.15400
C1350       C  0.26344198  0.50172316  0.02292341    -0.19100
C1351       C  0.30545476  0.54843714  0.03618937    -0.20900
C1352       C  0.32932543  0.57658843  0.03026178    -0.13500
C1353       C  0.33617740  0.58661805  0.00515665     0.03200
C1354       C  0.31947521  0.56649871  0.98589971    -0.25600
H1355       H  0.24294586  0.47386969  0.96346311     0.08300
H1356       H  0.28557635  0.52169866  0.95309746     0.11900
H1357       H  0.25654700  0.49702859  0.04233649     0.11800
H1358       H  0.30008505  0.54238026  0.05575288     0.11500
H1359       H  0.34165038  0.59183296  0.04538832     0.12100
H1360       H  0.32462337  0.57386149  0.96645884     0.14000
C1361       C  0.30906455  0.75716667  0.03420600    -0.06000
C1362       C  0.28659280  0.72831422  0.04207055    -0.05900
C1363       C  0.25515681  0.73958394  0.04475524    -0.24100
C1364       C  0.24586002  0.77940115  0.03853646     0.18100
C1365       C  0.26891761  0.80937503  0.03272873     0.15400
C1366       C  0.30064598  0.79831289  0.03153444    -0.19100
C1367       C  0.25965434  0.84859765  0.02528428    -0.20900
C1368       C  0.22800629  0.85663013  0.02098554    -0.13500
C1369       C  0.20525109  0.82594961  0.02478394     0.03200
C1370       C  0.21397853  0.78836198  0.03523311    -0.25600
H1371       H  0.29300167  0.69639231  0.04426215     0.08300
H1372       H  0.23788655  0.71636660  0.04939038     0.11900
H1373       H  0.31799706  0.82035675  0.02514784     0.11800
H1374       H  0.27694377  0.87192482  0.02091264     0.11500
H1375       H  0.22147410  0.88620270  0.01337814     0.12100
H1376       H  0.19644508  0.76472156  0.03816853     0.14000
C1377       C  0.40893972  0.65105862  0.92214025    -0.06000
C1378       C  0.43622966  0.66136254  0.90869899    -0.05900
C1379       C  0.43595741  0.66177464  0.88237329    -0.24100
C1380       C  0.40823297  0.65243933  0.86923510     0.18100
C1381       C  0.38126127  0.63944860  0.88263230     0.15400
C1382       C  0.38187661  0.63873505  0.90901003    -0.19100
C1383       C  0.35358962  0.62992398  0.86947726    -0.20900
C1384       C  0.35213238  0.63520162  0.84337487    -0.13500
C1385       C  0.37816759  0.65066559  0.83017578     0.03200
C1386       C  0.40643905  0.65807135  0.84312732    -0.25600
H1387       H  0.45696242  0.67190479  0.91853652     0.08300
H1388       H  0.45690535  0.67159204  0.87233500     0.11900
H1389       H  0.36053733  0.63160182  0.91943651     0.11800
H1390       H  0.33275077  0.61964097  0.87949037     0.11500
H1391       H  0.33030465  0.62902442  0.83368443     0.12100
H1392       H  0.42683828  0.66935569  0.83290114     0.14000
C1393       C  0.59369204  0.82572696  0.98750560    -0.06000
C1394       C  0.57694471  0.82097880  0.96494790    -0.05900
C1395       C  0.55143585  0.79402316  0.96327314    -0.24100
C1396       C  0.54164301  0.77154614  0.98431997     0.18100
C1397       C  0.55897665  0.77458270  0.00688625     0.15400
C1398       C  0.58524611  0.80114627  0.00824315    -0.19100
C1399       C  0.54843126  0.75309212  0.02816264    -0.20900
C1400       C  0.52004526  0.73119248  0.02751452    -0.13500
C1401       C  0.50218779  0.72911440  0.00540711     0.03200
C1402       C  0.51364038  0.74828992  0.98359515    -0.25600
H1403       H  0.58291681  0.83939576  0.94863500     0.08300
H1404       H  0.53855626  0.79215471  0.94587997     0.11900
H1405       H  0.59757981  0.80480788  0.02582089     0.11800
H1406       H  0.56120872  0.75501390  0.04565625     0.11500
H1407       H  0.51125395  0.71729521  0.04464145     0.12100
H1408       H  0.49952236  0.74787646  0.96674652     0.14000
C1409       C  0.36911072  0.97931215  0.96765578    -0.06000
C1410       C  0.34002160  0.95922975  0.96476391    -0.05900
C1411       C  0.33864058  0.91688597  0.96130571    -0.24100
C1412       C  0.36633409  0.89376113  0.96096294     0.18100
C1413       C  0.39579286  0.91410312  0.96143672     0.15400
C1414       C  0.39700236  0.95692765  0.96432178    -0.19100
C1415       C  0.42348416  0.89094142  0.96150152    -0.20900
C1416       C  0.42196711  0.84840364  0.96386005    -0.13500
C1417       C  0.39279039  0.82820644  0.96581060     0.03200
C1418       C  0.36503496  0.85079410  0.96265352    -0.25600
H1419       H  0.31816407  0.97595147  0.96693794     0.08300
H1420       H  0.31584265  0.90196090  0.96069628     0.11900
H1421       H  0.41956015  0.97206815  0.96664379     0.11800
H1422       H  0.44627463  0.90586416  0.96160614     0.11500
H1423       H  0.44373935  0.83147412  0.96601978     0.12100
H1424       H  0.34240778  0.83553572  0.96434452     0.14000
C1425       C  0.58426304  0.87574520  0.42929940    -0.06000
C1426       C  0.58174274  0.83977205  0.41483303    -0.05900
C1427       C  0.57808980  0.84155138  0.38876187    -0.24100
C1428       C  0.57751481  0.87942262  0.37644067     0.18100
C1429       C  0.57774809  0.91588135  0.39093161     0.15400
C1430       C  0.58053307  0.91382509  0.41736563    -0.19100
C1431       C  0.57788571  0.95374230  0.37855986    -0.20900
C1432       C  0.58054108  0.95547805  0.35235406    -0.13500
C1433       C  0.58247507  0.91946064  0.33780926     0.03200
C1434       C  0.57932324  0.88143677  0.34995196    -0.25600
H1435       H  0.58458409  0.81010083  0.42359944     0.08300
H1436       H  0.57775253  0.81321940  0.37809152     0.11900
H1437       H  0.58296125  0.94176817  0.42824980     0.11800
H1438       H  0.57785721  0.98207531  0.38921328     0.11500
H1439       H  0.58277870  0.98519286  0.34347976     0.12100
H1440       H  0.58119904  0.85343066  0.33903486     0.14000
C1441       C  0.67039119  0.97338536  0.49920405    -0.06000
C1442       C  0.67624364  0.98747968  0.52372762    -0.05900
C1443       C  0.70035196  0.01559752  0.52840157    -0.24100
C1444       C  0.71879569  0.03078740  0.50858146     0.18100
C1445       C  0.71180137  0.01908159  0.48363410     0.15400
C1446       C  0.68790552  0.98998796  0.47911321    -0.19100
C1447       C  0.72980685  0.03534197  0.46379696    -0.20900
C1448       C  0.75562323  0.06086132  0.46872046    -0.13500
C1449       C  0.76414766  0.07000102  0.49354200     0.03200
C1450       C  0.74507657  0.05578358  0.51337919    -0.25600
H1451       H  0.66331108  0.97495018  0.53954708     0.08300
H1452       H  0.70520753  0.02446784  0.54763088     0.11900
H1453       H  0.68357313  0.97938394  0.46013120     0.11800
H1454       H  0.72466513  0.02707505  0.44452939     0.11500
H1455       H  0.77024828  0.07107329  0.45321287     0.12100
H1456       H  0.75159812  0.06264712  0.53261064     0.14000
C1457       C  0.72736831  0.83016388  0.52785334    -0.06000
C1458       C  0.75012105  0.85766004  0.51858473    -0.05900
C1459       C  0.78204682  0.85050069  0.52258263    -0.24100
C1460       C  0.79158900  0.81538035  0.53555109     0.18100
C1461       C  0.76872820  0.78948595  0.54669033     0.15400
C1462       C  0.73675439  0.79759565  0.54323561    -0.19100
C1463       C  0.77810315  0.75351279  0.55881853    -0.20900
C1464       C  0.80927604  0.74068524  0.55707867    -0.13500
C1465       C  0.83148000  0.76443114  0.54404836     0.03200
C1466       C  0.82317581  0.80325495  0.53508556    -0.25600
H1467       H  0.74336141  0.88354481  0.50710527     0.08300
H1468       H  0.79921861  0.87081072  0.51408307     0.11900
H1469       H  0.71937803  0.77648138  0.55067801     0.11800
H1470       H  0.76091962  0.73346412  0.56751921     0.11500
H1471       H  0.81543576  0.71041197  0.56378273     0.12100
H1472       H  0.84022005  0.82107642  0.52449849     0.14000
C1473       C  0.53173814  0.79316795  0.52416623    -0.06000
C1474       C  0.53092591  0.75836576  0.53977025    -0.05900
C1475       C  0.50565421  0.73105337  0.53910574    -0.24100
C1476       C  0.48043707  0.73781466  0.52285520     0.18100
C1477       C  0.48006433  0.77345525  0.50777153     0.15400
C1478       C  0.50572494  0.80100367  0.50853563    -0.19100
C1479       C  0.45455591  0.77993241  0.49154425    -0.20900
C1480       C  0.43040514  0.75071564  0.48963468    -0.13500
C1481       C  0.43134979  0.71471064  0.50396087     0.03200
C1482       C  0.45620174  0.70868745  0.52076975    -0.25600
H1483       H  0.55039520  0.75142462  0.55206868     0.08300
H1484       H  0.50623668  0.70400708  0.55089079     0.11900
H1485       H  0.50594095  0.82758102  0.49634495     0.11800
H1486       H  0.45374884  0.80699109  0.47979153     0.11500
H1487       H  0.41168321  0.75538377  0.47623775     0.12100
H1488       H  0.45720920  0.68053298  0.53154955     0.14000
C1489       C  0.64031636  0.56709196  0.47724278    -0.06000
C1490       C  0.60927785  0.58169531  0.47766293    -0.05900
C1491       C  0.60321288  0.62367732  0.47704244    -0.24100
C1492       C  0.62807790  0.65177115  0.47549945     0.18100
C1493       C  0.65930373  0.63735370  0.47293593     0.15400
C1494       C  0.66530567  0.59497457  0.47421084    -0.19100
C1495       C  0.68398611  0.66575961  0.47062464    -0.20900
C1496       C  0.67803502  0.70784825  0.47273961    -0.13500
C1497       C  0.64740789  0.72204367  0.47757285     0.03200
C1498       C  0.62239251  0.69392076  0.47800269    -0.25600
H1499       H  0.58978610  0.56073757  0.48034300     0.08300
H1500       H  0.57910738  0.63421743  0.47883233     0.11900
H1501       H  0.68933373  0.58381341  0.47395919     0.11800
H1502       H  0.70804671  0.65537778  0.46829293     0.11500
H1503       H  0.69764180  0.72904360  0.47243283     0.12100
H1504       H  0.59864940  0.70475039  0.48159031     0.14000
C1505       C  0.68561747  0.87989520  0.83686217    -0.06000
C1506       C  0.69004503  0.84416292  0.85116466    -0.05900
C1507       C  0.69371394  0.84622828  0.87723845    -0.24100
C1508       C  0.69224499  0.88407327  0.88964696     0.18100
C1509       C  0.69037643  0.92043846  0.87523103     0.15400
C1510       C  0.68774051  0.91817074  0.84884074    -0.19100
C1511       C  0.68825617  0.95822405  0.88760517    -0.20900
C1512       C  0.68490317  0.95974648  0.91373077    -0.13500
C1513       C  0.68415111  0.92362087  0.92816225     0.03200
C1514       C  0.68971309  0.88593651  0.91609924    -0.25600
H1515       H  0.68863366  0.81432847  0.84229849     0.08300
H1516       H  0.69545877  0.81800135  0.88783615     0.11900
H1517       H  0.68398010  0.94586726  0.83803872     0.11800
H1518       H  0.68709162  0.98648256  0.87698460     0.11500
H1519       H  0.68098966  0.98922927  0.92257133     0.12100
H1520       H  0.68895734  0.85785797  0.92694797     0.14000
C1521       C  0.74766707  0.81353019  0.74485913    -0.06000
C1522       C  0.77077692  0.82643690  0.76199426    -0.05900
C1523       C  0.79864012  0.80381062  0.76518143    -0.24100
C1524       C  0.80396958  0.76763013  0.75139283     0.18100
C1525       C  0.78151049  0.75543304  0.73335895     0.15400
C1526       C  0.75386853  0.77850349  0.73007683    -0.19100
C1527       C  0.78624564  0.71916347  0.71970245    -0.20900
C1528       C  0.81214491  0.69417219  0.72462048    -0.13500
C1529       C  0.83427759  0.70514375  0.74289962     0.03200
C1530       C  0.83048865  0.74246066  0.75597337    -0.25600
H1531       H  0.76672135  0.85305156  0.77373688     0.08300
H1532       H  0.81552208  0.81386887  0.77906790     0.11900
H1533       H  0.73645087  0.76797317  0.71673107     0.11800
H1534       H  0.76928167  0.70932289  0.70581199     0.11500
H1535       H  0.81448308  0.66541358  0.71457749     0.12100
H1536       H  0.84719087  0.75079034  0.77042777     0.14000
C1537       C  0.63016732  0.72110779  0.78651913    -0.06000
C1538       C  0.59936505  0.70554493  0.78622934    -0.05900
C1539       C  0.59393067  0.66344386  0.78780122    -0.24100
C1540       C  0.61918646  0.63624144  0.79018966     0.18100
C1541       C  0.65010217  0.65182268  0.79263965     0.15400
C1542       C  0.65547206  0.69423849  0.79042516    -0.19100
C1543       C  0.67517337  0.62444680  0.79582277    -0.20900
C1544       C  0.67000693  0.58211797  0.79461791    -0.13500
C1545       C  0.63977211  0.56656161  0.78985779     0.03200
C1546       C  0.61427151  0.59377102  0.78862359    -0.25600
H1547       H  0.57961308  0.72575648  0.78308054     0.08300
H1548       H  0.57003290  0.65205378  0.78613875     0.11900
H1549       H  0.67931663  0.70618667  0.79076334     0.11800
H1550       H  0.69900420  0.63576644  0.79808362     0.11500
H1551       H  0.69000714  0.56169815  0.79548746     0.12100
H1552       H  0.59082810  0.58194291  0.78503781     0.14000
C1553       C  0.45141340  0.75711466  0.70648316    -0.06000
C1554       C  0.47516814  0.73176753  0.69677800    -0.05900
C1555       C  0.50641795  0.74469510  0.69711725    -0.24100
C1556       C  0.51406671  0.78230959  0.70824271     0.18100
C1557       C  0.48984227  0.80980283  0.71528238     0.15400
C1558       C  0.45839373  0.79758255  0.71323989    -0.19100
C1559       C  0.49741747  0.84654652  0.72747385    -0.20900
C1560       C  0.52816329  0.85351332  0.73542483    -0.13500
C1561       C  0.55173754  0.82434167  0.73067669     0.03200
C1562       C  0.54507140  0.79041809  0.71536343    -0.25600
H1563       H  0.46996000  0.70033937  0.69164044     0.08300
H1564       H  0.52466442  0.72347731  0.69141599     0.11900
H1565       H  0.44002182  0.81681113  0.72110122     0.11800
H1566       H  0.47922392  0.86816114  0.73271615     0.11500
H1567       H  0.53311127  0.88067413  0.74646105     0.12100
H1568       H  0.56326199  0.76818459  0.71120569     0.14000
C1569       C  0.63916053  0.89726717  0.68073899    -0.06000
C1570       C  0.60684722  0.89192950  0.67593789    -0.05900
C1571       C  0.59505920  0.89346016  0.65151039    -0.24100
C1572       C  0.61538207  0.90006909  0.63114734     0.18100
C1573       C  0.64754702  0.90871208  0.63583883     0.15400
C1574       C  0.65925581  0.90764232  0.66069546    -0.19100
C1575       C  0.66790420  0.91478409  0.61539279    -0.20900
C1576       C  0.65726743  0.90880677  0.59081616    -0.13500
C1577       C  0.62593335  0.89742923  0.58601723     0.03200
C1578       C  0.60467699  0.89485762  0.60623576    -0.25600
H1579       H  0.59093679  0.88366096  0.69109181     0.08300
H1580       H  0.57035162  0.88698577  0.64845191     0.11900
H1581       H  0.68426000  0.91105584  0.66408497     0.11800
H1582       H  0.69255466  0.92164343  0.61843346     0.11500
H1583       H  0.67409927  0.91052296  0.57549203     0.12100
H1584       H  0.58066293  0.88516966  0.60278183     0.14000
C1585       C  0.50972885  0.07972942  0.75582936    -0.06000
C1586       C  0.53050401  0.07810032  0.73520924    -0.05900
C1587       C  0.55738279  0.05334957  0.73571452    -0.24100
C1588       C  0.56370583  0.02871851  0.75665171     0.18100
C1589       C  0.54373172  0.03140637  0.77796888     0.15400
C1590       C  0.51710295  0.05736117  0.77757915    -0.19100
C1591       C  0.54959715  0.00605965  0.79864838    -0.20900
C1592       C  0.57381545  0.97700332  0.79777055    -0.13500
C1593       C  0.59316078  0.97275575  0.77632803     0.03200
C1594       C  0.58847052  0.99979504  0.75606255    -0.25600
H1595       H  0.52493751  0.09438448  0.71809336     0.08300
H1596       H  0.57230478  0.05181455  0.71914836     0.11900
H1597       H  0.50072981  0.05739775  0.79328759     0.11800
H1598       H  0.53467077  0.00759948  0.81520427     0.11500
H1599       H  0.57682233  0.95691117  0.81373980     0.12100
H1600       H  0.60291151  0.99681754  0.73929330     0.14000
C1601       C  0.08762631  0.38102561  0.41916461    -0.06000
C1602       C  0.08121948  0.34567756  0.40493383    -0.05900
C1603       C  0.07954395  0.34744776  0.37870577    -0.24100
C1604       C  0.08526392  0.38442498  0.36612588     0.18100
C1605       C  0.08994558  0.42061268  0.38039186     0.15400
C1606       C  0.09038458  0.41883721  0.40684564    -0.19100
C1607       C  0.09663642  0.45735913  0.36795584    -0.20900
C1608       C  0.10092415  0.45776389  0.34193673    -0.13500
C1609       C  0.09805799  0.42163814  0.32762527     0.03200
C1610       C  0.08875434  0.38530808  0.33972145    -0.25600
H1611       H  0.07932806  0.31617544  0.41409354     0.08300
H1612       H  0.07580729  0.31936210  0.36821873     0.11900
H1613       H  0.09606837  0.44606382  0.41765100     0.11800
H1614       H  0.10016248  0.48545939  0.37847724     0.11500
H1615       H  0.10764337  0.48629322  0.33302065     0.12100
H1616       H  0.08662435  0.35724717  0.32890822     0.14000
C1617       C  0.02279477  0.30665294  0.51499350    -0.06000
C1618       C  0.01575496  0.28288306  0.53637553    -0.05900
C1619       C  0.98950929  0.25693946  0.53703154    -0.24100
C1620       C  0.96974442  0.25347006  0.51614876     0.18100
C1621       C  0.97586335  0.27792738  0.49472074     0.15400
C1622       C  0.00205704  0.30484625  0.49440489    -0.19100
C1623       C  0.95657953  0.27339208  0.47354108    -0.20900
C1624       C  0.93255792  0.24383461  0.47318609    -0.13500
C1625       C  0.92658641  0.21904281  0.49423617     0.03200
C1626       C  0.94490456  0.22461266  0.51590294    -0.25600
H1627       H  0.03113943  0.28353110  0.55251626     0.08300
H1628       H  0.98530074  0.23848830  0.55363182     0.11900
H1629       H  0.00729577  0.32247517  0.47764908     0.11800
H1630       H  0.96083405  0.29163221  0.45686327     0.11500
H1631       H  0.91903183  0.23959562  0.45619883     0.12100
H1632       H  0.94096696  0.20489917  0.53200665     0.14000
C1633       C  0.15363859  0.07038605  0.47057411    -0.06000
C1634       C  0.18279675  0.09075904  0.47092067    -0.05900
C1635       C  0.18438804  0.13334593  0.46850526    -0.24100
C1636       C  0.15672787  0.15642869  0.46661444     0.18100
C1637       C  0.12737926  0.13599807  0.46506963     0.15400
C1638       C  0.12613101  0.09299150  0.46633341    -0.19100
C1639       C  0.09959328  0.15902032  0.46453935    -0.20900
C1640       C  0.10068499  0.20152028  0.46753447    -0.13500
C1641       C  0.12960836  0.22188403  0.47013999     0.03200
C1642       C  0.15767322  0.19941871  0.46843966    -0.25600
H1643       H  0.20424864  0.07382235  0.47430423     0.08300
H1644       H  0.20709207  0.14838430  0.46976574     0.11900
H1645       H  0.10351496  0.07752014  0.46659280     0.11800
H1646       H  0.07688739  0.14395184  0.46343739     0.11500
H1647       H  0.07883188  0.21840353  0.46896245     0.12100
H1648       H  0.18002650  0.21495106  0.47101159     0.14000
C1649       C  0.17428661  0.47056299  0.49188071    -0.06000
C1650       C  0.17952738  0.48308904  0.51679284    -0.05900
C1651       C  0.20394658  0.51003917  0.52269555    -0.24100
C1652       C  0.22318139  0.52621306  0.50369715     0.18100
C1653       C  0.21691350  0.51640252  0.47832364     0.15400
C1654       C  0.19284257  0.48789598  0.47255254    -0.19100
C1655       C  0.23562795  0.53424807  0.45938633    -0.20900
C1656       C  0.26132783  0.55940232  0.46561329    -0.13500
C1657       C  0.26907752  0.56659730  0.49087138     0.03200
C1658       C  0.24930631  0.55073230  0.50978296    -0.25600
H1659       H  0.16559052  0.47040350  0.53197333     0.08300
H1660       H  0.20818688  0.51755609  0.54222405     0.11900
H1661       H  0.18891027  0.47873571  0.45324244     0.11800
H1662       H  0.23102792  0.52768238  0.43978696     0.11500
H1663       H  0.27632630  0.57103490  0.45073536     0.12100
H1664       H  0.25500094  0.55622721  0.52933845     0.14000
C1665       C  0.18073016  0.40039878  0.82420160    -0.06000
C1666       C  0.18166013  0.44194355  0.83100736    -0.05900
C1667       C  0.18150612  0.45341137  0.85638797    -0.24100
C1668       C  0.18059855  0.42349919  0.87532242     0.18100
C1669       C  0.18215599  0.38165321  0.86860449     0.15400
C1670       C  0.18233555  0.37042189  0.84313469    -0.19100
C1671       C  0.18164039  0.35167855  0.88744653    -0.20900
C1672       C  0.17799937  0.36289427  0.91265359    -0.13500
C1673       C  0.17452592  0.40425985  0.91947861     0.03200
C1674       C  0.17661253  0.43453296  0.90071502    -0.25600
H1675       H  0.18018076  0.46550917  0.81678188     0.08300
H1676       H  0.18061864  0.48568936  0.86118855     0.11900
H1677       H  0.18173929  0.33821232  0.83804417     0.11800
H1678       H  0.18294810  0.31943079  0.88261844     0.11500
H1679       H  0.17629049  0.33902373  0.92669556     0.12100
H1680       H  0.17407053  0.46656896  0.90578789     0.14000
C1681       C  0.00413847  0.57132334  0.75680205    -0.06000
C1682       C  0.01268557  0.56287323  0.78169589    -0.05900
C1683       C  0.03750207  0.53572820  0.78672537    -0.24100
C1684       C  0.05393187  0.51658329  0.76691688     0.18100
C1685       C  0.04652195  0.52706077  0.74188444     0.15400
C1686       C  0.02211171  0.55456021  0.73707715    -0.19100
C1687       C  0.06257833  0.50843524  0.72190073    -0.20900
C1688       C  0.08554735  0.47913911  0.72655321    -0.13500
C1689       C  0.09272676  0.46749438  0.75124562     0.03200
C1690       C  0.07690950  0.48637469  0.77148941    -0.25600
H1691       H  0.99886159  0.57493469  0.79715948     0.08300
H1692       H  0.04293274  0.52836548  0.80606529     0.11900
H1693       H  0.01567860  0.56087320  0.71775856     0.11800
H1694       H  0.05699650  0.51602539  0.70260760     0.11500
H1695       H  0.09719389  0.46465890  0.71071322     0.12100
H1696       H  0.08240576  0.47752513  0.79059136     0.14000
C1697       C  0.34517913  0.22175875  0.74290500    -0.06000
C1698       C  0.33503161  0.22242042  0.71785452    -0.05900
C1699       C  0.30998101  0.24754212  0.71063090    -0.24100
C1700       C  0.29498136  0.27294122  0.72829343     0.18100
C1701       C  0.30635560  0.27424324  0.75323037     0.15400
C1702       C  0.33102157  0.24811399  0.76048474    -0.19100
C1703       C  0.29209020  0.30057310  0.77070202    -0.20900
C1704       C  0.26590757  0.32386426  0.76394969    -0.13500
C1705       C  0.25301700  0.32071062  0.73975694     0.03200
C1706       C  0.26809768  0.29575979  0.72179444    -0.25600
H1707       H  0.34548948  0.20191195  0.70415387     0.08300
H1708       H  0.30181333  0.24629400  0.69138192     0.11900
H1709       H  0.33871842  0.24750911  0.77987869     0.11800
H1710       H  0.30063059  0.30229128  0.78982882     0.11500
H1711       H  0.25455756  0.34254799  0.77817715     0.12100
H1712       H  0.25836031  0.29316785  0.70305782     0.14000
C1713       C  0.14907298  0.22446171  0.77868085    -0.06000
C1714       C  0.17759538  0.20393412  0.78268566    -0.05900
C1715       C  0.17804485  0.16144705  0.78594935    -0.24100
C1716       C  0.15012805  0.13870202  0.78410239     0.18100
C1717       C  0.12117278  0.15938227  0.78099117     0.15400
C1718       C  0.12077300  0.20226329  0.77906132    -0.19100
C1719       C  0.09348554  0.13667261  0.77770083    -0.20900
C1720       C  0.09479111  0.09406827  0.77550172    -0.13500
C1721       C  0.12363093  0.07339101  0.77743604     0.03200
C1722       C  0.15098904  0.09570833  0.78306679    -0.25600
H1723       H  0.19961461  0.22061860  0.78224243     0.08300
H1724       H  0.20047884  0.14613210  0.78826566     0.11900
H1725       H  0.09877014  0.21794002  0.77535224     0.11800
H1726       H  0.07109160  0.15200644  0.77523324     0.11500
H1727       H  0.07346706  0.07736345  0.77117413     0.12100
H1728       H  0.17341831  0.07996080  0.78417769     0.14000
C1729       C  0.14228396  0.39589381  0.66904889    -0.06000
C1730       C  0.10972357  0.39037169  0.66558666    -0.05900
C1731       C  0.09617871  0.39447995  0.64192099    -0.24100
C1732       C  0.11499847  0.40367721  0.62105577     0.18100
C1733       C  0.14734308  0.41269181  0.62462013     0.15400
C1734       C  0.16077026  0.40937481  0.64877225    -0.19100
C1735       C  0.16625145  0.42084794  0.60359056    -0.20900
C1736       C  0.15417209  0.41588423  0.57939027    -0.13500
C1737       C  0.12270356  0.40409181  0.57568383     0.03200
C1738       C  0.10275834  0.40008139  0.59658311    -0.25600
H1739       H  0.09500585  0.38025848  0.68107164     0.08300
H1740       H  0.07134206  0.38775997  0.63970009     0.11900
H1741       H  0.18591778  0.41331397  0.65123731     0.11800
H1742       H  0.19104139  0.42786122  0.60579184     0.11500
H1743       H  0.17013736  0.41791898  0.56353625     0.12100
H1744       H  0.07871654  0.38976647  0.59387343     0.14000
C1745       C  0.44110654  0.15032023  0.57964981    -0.06000
C1746       C  0.44306639  0.10905335  0.58649156    -0.05900
C1747       C  0.44529315  0.09848178  0.61182716    -0.24100
C1748       C  0.44558467  0.12913019  0.63038302     0.18100
C1749       C  0.44573093  0.17081766  0.62345529     0.15400
C1750       C  0.44380055  0.18107402  0.59807856    -0.19100
C1751       C  0.44593860  0.20140932  0.64207905    -0.20900
C1752       C  0.44388724  0.19072294  0.66747089    -0.13500
C1753       C  0.44172488  0.14939369  0.67428205     0.03200
C1754       C  0.44390327  0.11879690  0.65573891    -0.25600
H1755       H  0.44110858  0.08516425  0.57245969     0.08300
H1756       H  0.44537358  0.06634329  0.61698365     0.11900
H1757       H  0.44281477  0.21313293  0.59270868     0.11800
H1758       H  0.44625659  0.23356660  0.63695899     0.11500
H1759       H  0.44225870  0.21455234  0.68158059     0.12100
H1760       H  0.44270111  0.08671519  0.66102942     0.14000
C1761       C  0.34865988  0.07280762  0.49989021    -0.06000
C1762       C  0.34346290  0.04951601  0.47810268    -0.05900
C1763       C  0.32003127  0.01927156  0.47760758    -0.24100
C1764       C  0.30076998  0.01256873  0.49872222     0.18100
C1765       C  0.30649993  0.03522946  0.52095947     0.15400
C1766       C  0.33065657  0.06482200  0.52149385    -0.19100
C1767       C  0.28688511  0.02949394  0.54186561    -0.20900
C1768       C  0.26089167  0.00339521  0.54042188    -0.13500
C1769       C  0.25405830  0.98183872  0.51817472     0.03200
C1770       C  0.27482711  0.98549511  0.49758218    -0.25600
H1771       H  0.35696330  0.05566069  0.46120843     0.08300
H1772       H  0.31610878  0.00234041  0.46035464     0.11900
H1773       H  0.33421466  0.08334774  0.53820235     0.11800
H1774       H  0.29089514  0.04649508  0.55908696     0.11500
H1775       H  0.24540592  0.00111699  0.55657450     0.12100
H1776       H  0.26964310  0.96949803  0.48020431     0.14000
C1777       C  0.60265852  0.31908635  0.49991786    -0.06000
C1778       C  0.59768319  0.30401184  0.52434158    -0.05900
C1779       C  0.57351624  0.27620672  0.52931431    -0.24100
C1780       C  0.55411882  0.26236086  0.50989260     0.18100
C1781       C  0.55968881  0.27574085  0.48500047     0.15400
C1782       C  0.58372860  0.30449450  0.48019789    -0.19100
C1783       C  0.54043588  0.26102670  0.46558949    -0.20900
C1784       C  0.51510427  0.23485612  0.47097307    -0.13500
C1785       C  0.50845028  0.22347312  0.49586347     0.03200
C1786       C  0.52848406  0.23663458  0.51514525    -0.25600
H1787       H  0.61168965  0.31508846  0.53987101     0.08300
H1788       H  0.56958580  0.26617153  0.54850069     0.11900
H1789       H  0.58737771  0.31598395  0.46128290     0.11800
H1790       H  0.54437280  0.27075847  0.44635572     0.11500
H1791       H  0.49956943  0.22560592  0.45593573     0.12100
H1792       H  0.52330923  0.22810379  0.53444282     0.14000
C1793       C  0.40316443  0.31991170  0.47447864    -0.06000
C1794       C  0.43244180  0.34004232  0.47334743    -0.05900
C1795       C  0.43406621  0.38227376  0.46969751    -0.24100
C1796       C  0.40638529  0.40508667  0.46746588     0.18100
C1797       C  0.37699716  0.38461015  0.46665101     0.15400
C1798       C  0.37562125  0.34198115  0.46966923    -0.19100
C1799       C  0.34925752  0.40742061  0.46508018    -0.20900
C1800       C  0.35042148  0.45000213  0.46669831    -0.13500
C1801       C  0.37934446  0.47045189  0.46952772     0.03200
C1802       C  0.40740928  0.44802927  0.46835995    -0.25600
H1803       H  0.45406291  0.32342446  0.47672530     0.08300
H1804       H  0.45677470  0.39731983  0.47021781     0.11900
H1805       H  0.35299510  0.32672135  0.47066439     0.11800
H1806       H  0.32657911  0.39232179  0.46433503     0.11500
H1807       H  0.32848210  0.46683858  0.46746513     0.12100
H1808       H  0.42973596  0.46354439  0.47086522     0.14000
C1809       C  0.32182303  0.24750534  0.54170781    -0.06000
C1810       C  0.29820743  0.22008520  0.54937266    -0.05900
C1811       C  0.26673599  0.23206931  0.54946783    -0.24100
C1812       C  0.25852611  0.27126408  0.54109915     0.18100
C1813       C  0.28242174  0.30015108  0.53551601     0.15400
C1814       C  0.31410473  0.28840684  0.53668020    -0.19100
C1815       C  0.27422995  0.33881564  0.52625028    -0.20900
C1816       C  0.24295657  0.34739988  0.52044382    -0.13500
C1817       C  0.21936926  0.31781553  0.52431227     0.03200
C1818       C  0.22705112  0.28063276  0.53595094    -0.25600
H1819       H  0.30387943  0.18829849  0.55306298     0.08300
H1820       H  0.24878289  0.20965291  0.55392829     0.11900
H1821       H  0.33224127  0.30930848  0.53022971     0.11800
H1822       H  0.29215176  0.36138526  0.52201944     0.11500
H1823       H  0.23739827  0.37666561  0.51196344     0.12100
H1824       H  0.20900289  0.25772224  0.53905782     0.14000
C1825       C  0.33248007  0.14073093  0.08057827    -0.06000
C1826       C  0.33048822  0.18230632  0.08697862    -0.05900
C1827       C  0.33044208  0.19415958  0.11219186    -0.24100
C1828       C  0.33221841  0.16453878  0.13120332     0.18100
C1829       C  0.33242209  0.12250303  0.12491764     0.15400
C1830       C  0.33252517  0.11091810  0.09963465    -0.19100
C1831       C  0.33373233  0.09289360  0.14400211    -0.20900
C1832       C  0.33626484  0.10492376  0.16912565    -0.13500
C1833       C  0.33786227  0.14662159  0.17526616     0.03200
C1834       C  0.33499040  0.17625169  0.15632873    -0.25600
H1835       H  0.33044087  0.20559758  0.07252969     0.08300
H1836       H  0.33001438  0.22653986  0.11681037     0.11900
H1837       H  0.33364036  0.07864458  0.09476148     0.11800
H1838       H  0.33366058  0.06049678  0.13943960     0.11500
H1839       H  0.33832153  0.08182537  0.18359030     0.12100
H1840       H  0.33567084  0.20857689  0.16115233     0.14000
C1841       C  0.26551889  0.22550072  0.25540765    -0.06000
C1842       C  0.25690641  0.23529387  0.28020046    -0.05900
C1843       C  0.23157997  0.26168473  0.28504277    -0.24100
C1844       C  0.21406605  0.27818244  0.26517557     0.18100
C1845       C  0.22110423  0.26609085  0.24025908     0.15400
C1846       C  0.24701279  0.24029184  0.23552169    -0.19100
C1847       C  0.20296754  0.28150739  0.22044444    -0.20900
C1848       C  0.17916022  0.31020386  0.22509484    -0.13500
C1849       C  0.17346799  0.32465737  0.24956081     0.03200
C1850       C  0.19059755  0.30784676  0.26963582    -0.25600
H1851       H  0.27101774  0.22465602  0.29575050     0.08300
H1852       H  0.22635963  0.27027431  0.30429881     0.11900
H1853       H  0.25351957  0.23289941  0.21630533     0.11800
H1854       H  0.20782787  0.27231052  0.20122807     0.11500
H1855       H  0.16644722  0.32295296  0.20937104     0.12100
H1856       H  0.18627397  0.31876821  0.28859794     0.14000
C1857       C  0.40215347  0.46783259  0.28633582    -0.06000
C1858       C  0.43083961  0.44644928  0.28752491    -0.05900
C1859       C  0.43132358  0.40380706  0.28892163    -0.24100
C1860       C  0.40311233  0.38170363  0.28897840     0.18100
C1861       C  0.37412029  0.40295220  0.29017450     0.15400
C1862       C  0.37383647  0.44604193  0.28935460    -0.19100
C1863       C  0.34590911  0.38069324  0.28970338    -0.20900
C1864       C  0.34640816  0.33840882  0.28555406    -0.13500
C1865       C  0.37511709  0.31759666  0.28244298     0.03200
C1866       C  0.40341740  0.33903466  0.28562675    -0.25600
H1867       H  0.45301074  0.46253772  0.28543350     0.08300
H1868       H  0.45374953  0.38807859  0.28818422     0.11900
H1869       H  0.35157593  0.46212537  0.28828232     0.11800
H1870       H  0.32344818  0.39628410  0.29085546     0.11500
H1871       H  0.32429636  0.32224943  0.28346352     0.12100
H1872       H  0.42563885  0.32322143  0.28307318     0.14000
C1873       C  0.51781420  0.97825447  0.23968345    -0.06000
C1874       C  0.50890240  0.99683335  0.21698098    -0.05900
C1875       C  0.48198265  0.02133764  0.21561288    -0.24100
C1876       C  0.46364950  0.02877172  0.23709926     0.18100
C1877       C  0.47157754  0.00918891  0.25991913     0.15400
C1878       C  0.49826065  0.98336881  0.26095799    -0.19100
C1879       C  0.45384938  0.01793891  0.28161997    -0.20900
C1880       C  0.42999318  0.04756630  0.28105174    -0.13500
C1881       C  0.42257328  0.06796165  0.25863007     0.03200
C1882       C  0.43880749  0.05742090  0.23649386    -0.25600
H1883       H  0.52340807  0.99337243  0.20031608     0.08300
H1884       H  0.47632340  0.03598849  0.19795761     0.11900
H1885       H  0.50501991  0.96971118  0.27867768     0.11800
H1886       H  0.45946435  0.00339711  0.29931990     0.11500
H1887       H  0.41795529  0.05562116  0.29835655     0.12100
H1888       H  0.43366338  0.07370512  0.21925918     0.14000
C1889       C  0.40161832  0.14825660  0.42237451    -0.06000
C1890       C  0.42499276  0.12939919  0.40781277    -0.05900
C1891       C  0.42001049  0.12291475  0.38210087    -0.24100
C1892       C  0.39154282  0.13500840  0.37096533     0.18100
C1893       C  0.36732494  0.15179712  0.38599124     0.15400
C1894       C  0.37248952  0.15797480  0.41152868    -0.19100
C1895       C  0.33896924  0.16439973  0.37503274    -0.20900
C1896       C  0.33546955  0.16311380  0.34900342    -0.13500
C1897       C  0.36000258  0.14844994  0.33392835     0.03200
C1898       C  0.38753522  0.13309506  0.34491693    -0.25600
H1899       H  0.44738771  0.12132636  0.41604307     0.08300
H1900       H  0.43870360  0.10980015  0.37080328     0.11900
H1901       H  0.35406370  0.17167258  0.42290326     0.11800
H1902       H  0.32029132  0.17734551  0.38642791     0.11500
H1903       H  0.31456078  0.17597755  0.34055717    -0.03900
H1904       H  0.40669812  0.12270401  0.33301664     0.14000
C1905       C  0.68905620  0.39338201  0.42715725    -0.06000
C1906       C  0.68733116  0.35199135  0.42008305    -0.05900
C1907       C  0.68900036  0.34068082  0.39473886    -0.24100
C1908       C  0.69283029  0.37056185  0.37603489     0.18100
C1909       C  0.69717291  0.41193498  0.38306458     0.15400
C1910       C  0.69499788  0.42315821  0.40859557    -0.19100
C1911       C  0.70163660  0.44161327  0.36429922    -0.20900
C1912       C  0.69912942  0.43101350  0.33885402    -0.13500
C1913       C  0.69194599  0.39060581  0.33173342     0.03200
C1914       C  0.69033656  0.36016782  0.35046526    -0.25600
H1915       H  0.68242860  0.32865093  0.43400922     0.08300
H1916       H  0.68585025  0.30875685  0.38970222     0.11900
H1917       H  0.69634310  0.45519214  0.41391655     0.11800
H1918       H  0.70550170  0.47340566  0.36931517     0.11500
H1919       H  0.70063200  0.45499938  0.32487078     0.12100
H1920       H  0.68515698  0.32874695  0.34525587     0.14000
C1921       C  0.59820258  0.46860481  0.27299167    -0.06000
C1922       C  0.57672773  0.46677114  0.29322545    -0.05900
C1923       C  0.55138406  0.49383501  0.29484342    -0.24100
C1924       C  0.54673341  0.52338734  0.27621312     0.18100
C1925       C  0.56897589  0.52718511  0.25646237     0.15400
C1926       C  0.59474480  0.49998083  0.25507356    -0.19100
C1927       C  0.56385000  0.55637389  0.23758836    -0.20900
C1928       C  0.53592984  0.57915966  0.23724163    -0.13500
C1929       C  0.51304845  0.57405380  0.25610042     0.03200
C1930       C  0.51909980  0.54713096  0.27603418    -0.25600
H1931       H  0.57882168  0.44331788  0.30747361     0.08300
H1932       H  0.53468195  0.49053585  0.31018682     0.11900
H1933       H  0.61102893  0.50183576  0.23934865     0.11800
H1934       H  0.58053413  0.55981542  0.22225105     0.11500
H1935       H  0.53122485  0.59880954  0.22133066     0.12100
H1936       H  0.50100514  0.54196127  0.29015797     0.14000
C1937       C  0.75636037  0.32143694  0.23981197    -0.06000
C1938       C  0.77302818  0.32538758  0.26245343    -0.05900
C1939       C  0.79928220  0.30086257  0.26735749    -0.24100
C1940       C  0.80980466  0.27218682  0.24956699     0.18100
C1941       C  0.79461461  0.26974374  0.22602769     0.15400
C1942       C  0.76783915  0.29409301  0.22137432    -0.19100
C1943       C  0.80562930  0.24159861  0.20803044    -0.20900
C1944       C  0.83031477  0.21482333  0.21375856    -0.13500
C1945       C  0.84429379  0.21551124  0.23757192     0.03200
C1946       C  0.83432081  0.24472863  0.25530423    -0.25600
H1947       H  0.76464405  0.34581317  0.27707945     0.08300
H1948       H  0.81073874  0.30342016  0.28542239     0.11900
H1949       H  0.75527266  0.29064669  0.20383615     0.11800
H1950       H  0.79448475  0.23936472  0.18982766     0.11500
H1951       H  0.83746063  0.19209813  0.20001439     0.12100
H1952       H  0.84483970  0.24502034  0.27381092     0.14000
C1953       C  0.62506597  0.07345163  0.27981998    -0.06000
C1954       C  0.59672830  0.09538058  0.28066109    -0.05900
C1955       C  0.59702484  0.13790225  0.28325780    -0.24100
C1956       C  0.62571431  0.15907091  0.28391913     0.18100
C1957       C  0.65434416  0.13700432  0.28394969     0.15400
C1958       C  0.65374589  0.09414059  0.28277850    -0.19100
C1959       C  0.68302297  0.15825459  0.28292618    -0.20900
C1960       C  0.68328428  0.20075555  0.27991009    -0.13500
C1961       C  0.65490784  0.22257626  0.27912958     0.03200
C1962       C  0.62627489  0.20183815  0.28237033    -0.25600
H1963       H  0.57445907  0.07969360  0.27841849     0.08300
H1964       H  0.57488648  0.15438967  0.28313731     0.11900
H1965       H  0.67567230  0.07718974  0.28172291     0.11800
H1966       H  0.70517828  0.14180065  0.28284606     0.11500
H1967       H  0.70551550  0.21646748  0.27736990     0.12100
H1968       H  0.60430462  0.21865605  0.28126643     0.14000
C1969       C  0.56034519  0.31248248  0.23050976    -0.06000
C1970       C  0.53672476  0.34205766  0.23401115    -0.05900
C1971       C  0.50526499  0.33254726  0.22947443    -0.24100
C1972       C  0.49684186  0.29292398  0.22192763     0.18100
C1973       C  0.52061464  0.26366571  0.21684694     0.15400
C1974       C  0.55235587  0.27397804  0.22058832    -0.19100
C1975       C  0.51208650  0.22353533  0.21035111    -0.20900
C1976       C  0.48056026  0.21150594  0.21152058    -0.13500
C1977       C  0.45707704  0.23977271  0.21818507     0.03200
C1978       C  0.46510371  0.28103160  0.22179027    -0.25600
H1979       H  0.54249060  0.37221370  0.24122689     0.08300
H1980       H  0.48742911  0.35537067  0.23334659     0.11900
H1981       H  0.57044062  0.25102547  0.21786984     0.11800
H1982       H  0.52989587  0.20074855  0.20633541     0.11500
H1983       H  0.47470026  0.17945218  0.20891910     0.12100
H1984       H  0.44711928  0.30266789  0.22752751     0.14000
C1985       C  0.57971571  0.39840171  0.92835493    -0.06000
C1986       C  0.57629206  0.43938445  0.92080158    -0.05900
C1987       C  0.57448169  0.44937167  0.89526204    -0.24100
C1988       C  0.57592345  0.41851024  0.87687786     0.18100
C1989       C  0.57626030  0.37702451  0.88437935     0.15400
C1990       C  0.57811286  0.36724952  0.91005585    -0.19100
C1991       C  0.57716858  0.34612407  0.86600810    -0.20900
C1992       C  0.58074615  0.35617222  0.84058569    -0.13500
C1993       C  0.58367122  0.39724277  0.83317450     0.03200
C1994       C  0.57958275  0.42836001  0.85129701    -0.25600
H1995       H  0.57734714  0.46391036  0.93448925     0.08300
H1996       H  0.57375024  0.48136750  0.88986090     0.11900
H1997       H  0.58037859  0.33546307  0.91568644     0.11800
H1998       H  0.57704734  0.31411865  0.87141747     0.11500
H1999       H  0.58396411  0.33176110  0.82702437     0.12100
H2000       H  0.58165782  0.46020743  0.84571138     0.14000
C2001       C  0.62080266  0.41313898  0.08392953    -0.06000
C2002       C  0.65362822  0.41719182  0.08615143    -0.05900
C2003       C  0.66784969  0.42023385  0.10972084    -0.24100
C2004       C  0.64952417  0.41865697  0.13165270     0.18100
C2005       C  0.61627049  0.41802768  0.12956024     0.15400
C2006       C  0.60207391  0.41565929  0.10566277    -0.19100
C2007       C  0.59791116  0.41583095  0.15143405    -0.20900
C2008       C  0.61216886  0.41048031  0.17478905    -0.13500
C2009       C  0.64506400  0.40791143  0.17691583     0.03200
C2010       C  0.66378114  0.41392765  0.15541205    -0.25600
H2011       H  0.66849808  0.41468966  0.06961451     0.08300
H2012       H  0.69331638  0.42092472  0.11079970     0.11900
H2013       H  0.57681350  0.41153647  0.10416215     0.11800
H2014       H  0.57244266  0.41549868  0.15033543     0.11500
H2015       H  0.59735314  0.40546637  0.19113609     0.12100
H2016       H  0.68914531  0.41107530  0.15680765     0.14000
C2017       C  0.42380979  0.21993563  0.01168198    -0.06000
C2018       C  0.42983094  0.22770458  0.03718306    -0.05900
C2019       C  0.45363054  0.25520223  0.04433011    -0.24100
C2020       C  0.47132118  0.27632825  0.02608191     0.18100
C2021       C  0.46414132  0.27037768  0.00040355     0.15400
C2022       C  0.44096465  0.24164895  0.99337108    -0.19100
C2023       C  0.48076594  0.29259905  0.98213210    -0.20900
C2024       C  0.50487506  0.31946952  0.98906528    -0.13500
C2025       C  0.51357348  0.32405131  0.01435827     0.03200
C2026       C  0.49649683  0.30245658  0.03290075    -0.25600
H2027       H  0.41704043  0.21106700  0.05158062     0.08300
H2028       H  0.45848636  0.25950209  0.06412193     0.11900
H2029       H  0.43642314  0.23586179  0.97365132     0.11800
H2030       H  0.47550357  0.28865304  0.96237736     0.11500
H2031       H  0.51798605  0.33505037  0.97440392     0.12100
H2032       H  0.50310693  0.30548756  0.05245724     0.14000
C2033       C  0.63739237  0.07607224  0.98487709    -0.06000
C2034       C  0.66633493  0.09669674  0.98328263    -0.05900
C2035       C  0.66735699  0.13912039  0.97988424    -0.24100
C2036       C  0.63940624  0.16181148  0.97898964     0.18100
C2037       C  0.61012388  0.14110370  0.97973567     0.15400
C2038       C  0.60934260  0.09818003  0.98196888    -0.19100
C2039       C  0.58219310  0.16390540  0.98017730    -0.20900
C2040       C  0.58327037  0.20664063  0.98174348    -0.13500
C2041       C  0.61224103  0.22737096  0.98190798     0.03200
C2042       C  0.64022276  0.20486888  0.97936793    -0.25600
H2043       H  0.68815835  0.08004054  0.98545125     0.08300
H2044       H  0.69002588  0.15442504  0.97936973     0.11900
H2045       H  0.58692363  0.08238984  0.98357863     0.11800
H2046       H  0.55953159  0.14861679  0.98081600     0.11500
H2047       H  0.56148642  0.22350432  0.98383318     0.12100
H2048       H  0.66269326  0.22067853  0.98004409     0.14000
C2049       C  0.67091074  0.47472695  0.99070371    -0.06000
C2050       C  0.68402652  0.48511644  0.96724640    -0.05900
C2051       C  0.70877092  0.51338633  0.96547882    -0.24100
C2052       C  0.72151683  0.53100875  0.98722298     0.18100
C2053       C  0.70797272  0.52138709  0.01087729     0.15400
C2054       C  0.68241828  0.49398024  0.01241573    -0.19100
C2055       C  0.72128763  0.53759915  0.03273744    -0.20900
C2056       C  0.74860823  0.56126839  0.03134301    -0.13500
C2057       C  0.76289000  0.57013260  0.00806984     0.03200
C2058       C  0.74863628  0.55603147  0.98591266    -0.25600
H2059       H  0.67545918  0.47071672  0.95026145     0.08300
H2060       H  0.71872539  0.52024205  0.94716868     0.11900
H2061       H  0.67278503  0.48569292  0.03063362     0.11800
H2062       H  0.71139160  0.53046009  0.05103511     0.11500
H2063       H  0.75940738  0.57146315  0.04865479     0.12100
H2064       H  0.75992388  0.56185636  0.96794183     0.14000
C2065       C  0.83949344  0.13864282  0.67040438    -0.06000
C2066       C  0.83777065  0.09721491  0.66365361    -0.05900
C2067       C  0.83602318  0.08624754  0.63827113    -0.24100
C2068       C  0.83583792  0.11668006  0.61960295     0.18100
C2069       C  0.83548386  0.15841889  0.62655079     0.15400
C2070       C  0.83716779  0.16901902  0.65187443    -0.19100
C2071       C  0.83492905  0.18894901  0.60803622    -0.20900
C2072       C  0.83637694  0.17829887  0.58266600    -0.13500
C2073       C  0.83859992  0.13705861  0.57564297     0.03200
C2074       C  0.83737603  0.10629858  0.59413873    -0.25600
H2075       H  0.83938153  0.07355534  0.67781178     0.08300
H2076       H  0.83596948  0.05405500  0.63319584     0.11900
H2077       H  0.83789365  0.20113867  0.65716813     0.11800
H2078       H  0.83442166  0.22109142  0.61320303     0.11500
H2079       H  0.83718848  0.20223737  0.56862393     0.12100
H2080       H  0.83857319  0.07426611  0.58870794     0.14000
C2081       C  0.76622659  0.21477796  0.74739371    -0.06000
C2082       C  0.74950760  0.22398540  0.72536816    -0.05900
C2083       C  0.72279285  0.24898962  0.72601484    -0.24100
C2084       C  0.71243771  0.26637337  0.74868567     0.18100
C2085       C  0.72822927  0.25634295  0.77119642     0.15400
C2086       C  0.75476067  0.23000979  0.77050082    -0.19100
C2087       C  0.71830592  0.27484504  0.79372155    -0.20900
C2088       C  0.69427390  0.30434563  0.79375190    -0.13500
C2089       C  0.67900645  0.31550415  0.77136901     0.03200
C2090       C  0.68769480  0.29528853  0.74896534    -0.25600
H2091       H  0.75800314  0.21311225  0.70733483     0.08300
H2092       H  0.71111078  0.25628019  0.70854010     0.11900
H2093       H  0.76782588  0.22405185  0.78753846     0.11800
H2094       H  0.72994937  0.26766456  0.81123101     0.11500
H2095       H  0.68808516  0.31919119  0.81129315     0.12100
H2096       H  0.67648667  0.30379730  0.73148981     0.14000
C2097       C  0.89962958  0.46521511  0.77521408    -0.06000
C2098       C  0.92875435  0.44533953  0.77810384    -0.05900
C2099       C  0.93027892  0.40266304  0.78042268    -0.24100
C2100       C  0.90275618  0.37900633  0.77931016     0.18100
C2101       C  0.87328128  0.39902723  0.77794348     0.15400
C2102       C  0.87189116  0.44193682  0.77639393    -0.19100
C2103       C  0.84576003  0.37571824  0.77631219    -0.20900
C2104       C  0.84743272  0.33324870  0.77405417    -0.13500
C2105       C  0.87665366  0.31297453  0.77379130     0.03200
C2106       C  0.90424306  0.33590470  0.77764567    -0.25600
H2107       H  0.95047484  0.46267899  0.77735348     0.08300
H2108       H  0.95311323  0.38804620  0.78164956     0.11900
H2109       H  0.84930868  0.45684997  0.77387432     0.11800
H2110       H  0.82292255  0.39047198  0.77552656     0.11500
H2111       H  0.82580691  0.31631510  0.77126500     0.12100
H2112       H  0.92691759  0.32067709  0.77718865     0.14000
C2113       C  0.93099933  0.06738708  0.74533131    -0.06000
C2114       C  0.93959665  0.06206756  0.72000943    -0.05900
C2115       C  0.96501769  0.03690967  0.71318298    -0.24100
C2116       C  0.98203515  0.01547415  0.73148310     0.18100
C2117       C  0.97247691  0.01848147  0.75692111     0.15400
C2118       C  0.94751532  0.04515536  0.76378268    -0.19100
C2119       C  0.98865414  0.99554452  0.77504652    -0.20900
C2120       C  0.01467050  0.97135705  0.76824013    -0.13500
C2121       C  0.02576800  0.97021570  0.74327264     0.03200
C2122       C  0.00894501  0.99212024  0.72489117    -0.25600
H2123       H  0.92755265  0.07910695  0.70551244     0.08300
H2124       H  0.97171804  0.03479941  0.69355453     0.11900
H2125       H  0.94118150  0.04899218  0.78340117     0.11800
H2126       H  0.98161079  0.99698360  0.79461535     0.11500
H2127       H  0.02731022  0.95533330  0.78286389     0.12100
H2128       H  0.01718066  0.99166797  0.70558288     0.14000
C2129       C  0.95828597  0.23020208  0.71006310    -0.06000
C2130       C  0.98226497  0.20121931  0.70639110    -0.05900
C2131       C  0.01363138  0.21352017  0.70552260    -0.24100
C2132       C  0.02129164  0.25483228  0.70903503     0.18100
C2133       C  0.99706412  0.28452402  0.71039925     0.15400
C2134       C  0.96555417  0.27203913  0.71003059    -0.19100
C2135       C  0.00465596  0.32560183  0.71495512    -0.20900
C2136       C  0.03554919  0.33644940  0.72053076    -0.13500
C2137       C  0.05928610  0.30656768  0.72097734     0.03200
C2138       C  0.05243354  0.26629516  0.71373509    -0.25600
H2139       H  0.97687936  0.16874924  0.70644683     0.08300
H2140       H  0.03185477  0.19043773  0.70433454     0.11900
H2141       H  0.94708438  0.29432182  0.71328538     0.11800
H2142       H  0.98647314  0.34875294  0.71591658     0.11500
H2143       H  0.04066842  0.36793390  0.72560131     0.12100
H2144       H  0.07071760  0.24320238  0.71409631     0.14000
C2145       C  0.93457870  0.14018785  0.17044328    -0.06000
C2146       C  0.93467325  0.18243435  0.16583672    -0.05900
C2147       C  0.93321486  0.19683598  0.14121679    -0.24100
C2148       C  0.93183417  0.16903918  0.12113386     0.18100
C2149       C  0.93363429  0.12647754  0.12572027     0.15400
C2150       C  0.93514069  0.11240201  0.15034991    -0.19100
C2151       C  0.93257402  0.09862332  0.10568443    -0.20900
C2152       C  0.92876480  0.11279685  0.08123793    -0.13500
C2153       C  0.92567563  0.15485381  0.07673301     0.03200
C2154       C  0.92768723  0.18292045  0.09662786    -0.25600
H2155       H  0.93408009  0.20410932  0.18124641     0.08300
H2156       H  0.93206830  0.22958319  0.13793116     0.11900
H2157       H  0.93538472  0.07968556  0.15396561     0.11800
H2158       H  0.93400366  0.06590831  0.10898261     0.11500
H2159       H  0.92717678  0.09092970  0.06597939     0.12100
H2160       H  0.92562586  0.21553355  0.09303626     0.14000
C2161       C  0.80578282  0.24102734  0.04220514    -0.06000
C2162       C  0.78205133  0.21243826  0.04768385    -0.05900
C2163       C  0.75094006  0.22523443  0.05029210    -0.24100
C2164       C  0.74330471  0.26642821  0.04625673     0.18100
C2165       C  0.76757925  0.29577898  0.04320626     0.15400
C2166       C  0.79890342  0.28296972  0.04239278    -0.19100
C2167       C  0.76003998  0.33650525  0.03767658    -0.20900
C2168       C  0.72905121  0.34698069  0.03230138    -0.13500
C2169       C  0.70521421  0.31721833  0.03340516     0.03200
C2170       C  0.71205392  0.27778805  0.04216135    -0.25600
H2171       H  0.78719880  0.17992274  0.04777608     0.08300
H2172       H  0.73266261  0.20244596  0.05285876     0.11900
H2173       H  0.81723375  0.30500680  0.03797384     0.11800
H2174       H  0.77833449  0.35937867  0.03542058     0.11500
H2175       H  0.72391181  0.37784488  0.02610263     0.12100
H2176       H  0.69362501  0.25482517  0.04304774     0.14000
C2177       C  0.89477443  0.15058558  0.92010085    -0.06000
C2178       C  0.92289379  0.14319831  0.90707037    -0.05900
C2179       C  0.92237036  0.13726194  0.88105604    -0.24100
C2180       C  0.89368320  0.13828438  0.86807657     0.18100
C2181       C  0.86512555  0.14245843  0.88151138     0.15400
C2182       C  0.86592292  0.14852460  0.90745312    -0.19100
C2183       C  0.83639522  0.14301775  0.86860186    -0.20900
C2184       C  0.83610138  0.14276185  0.84236076    -0.13500
C2185       C  0.86450998  0.14183631  0.82902543     0.03200
C2186       C  0.89311775  0.13789054  0.84184498    -0.25600
H2187       H  0.94520692  0.14410519  0.91677025     0.08300
H2188       H  0.94440943  0.13354061  0.87098152     0.11900
H2189       H  0.84411829  0.15321364  0.91775117     0.11800
H2190       H  0.81432991  0.14579738  0.87875022     0.11500
H2191       H  0.81399845  0.14600628  0.83254477     0.12100
H2192       H  0.91504362  0.13706237  0.83131818     0.14000
C2193       C  0.83963490  0.07166325  0.00195894    -0.06000
C2194       C  0.83442857  0.04448277  0.98193601    -0.05900
C2195       C  0.81045266  0.01496308  0.98326265    -0.24100
C2196       C  0.79059687  0.01277152  0.00440973     0.18100
C2197       C  0.79617919  0.03933292  0.02495052     0.15400
C2198       C  0.82084329  0.06830645  0.02369558    -0.19100
C2199       C  0.77589235  0.03801950  0.04579665    -0.20900
C2200       C  0.74955773  0.01219871  0.04585576    -0.13500
C2201       C  0.74301331  0.98651098  0.02524782     0.03200
C2202       C  0.76430161  0.98616895  0.00481404    -0.25600
H2203       H  0.84812754  0.04726911  0.96480870     0.08300
H2204       H  0.80654477  0.99506720  0.96724838     0.11900
H2205       H  0.82410613  0.09003420  0.03891935     0.11800
H2206       H  0.77974285  0.05809149  0.06174071     0.11500
H2207       H  0.73373440  0.01319141  0.06185447     0.12100
H2208       H  0.75945351  0.96698368  0.98863291     0.14000
C2209       C  0.99706132  0.23062273  0.00144676    -0.06000
C2210       C  0.01253392  0.23678414  0.02446194    -0.05900
C2211       C  0.03991796  0.26048318  0.02588315    -0.24100
C2212       C  0.05214840  0.27951864  0.00436713     0.18100
C2213       C  0.03749164  0.27238781  0.98090176     0.15400
C2214       C  0.01030877  0.24740224  0.97950140    -0.19100
C2215       C  0.04913122  0.29250236  0.95954243    -0.20900
C2216       C  0.07376218  0.32085006  0.96155979    -0.13500
C2217       C  0.08794215  0.32918372  0.98487106     0.03200
C2218       C  0.07759966  0.30731666  0.00614040    -0.25600
H2219       H  0.00247539  0.22469396  0.04166268     0.08300
H2220       H  0.05063680  0.26555701  0.04407465     0.11900
H2221       H  0.99810491  0.24379958  0.96177449     0.11800
H2222       H  0.03835540  0.28753863  0.94135778     0.11500
H2223       H  0.08134285  0.33706562  0.94486614     0.12100
H2224       H  0.08801531  0.31379623  0.02428910     0.14000
C2225       C  0.87118240  0.32368080  0.97427981    -0.06000
C2226       C  0.84057258  0.33974230  0.97555937    -0.05900
C2227       C  0.83573842  0.38208694  0.97517446    -0.24100
C2228       C  0.86143666  0.40895994  0.97337783     0.18100
C2229       C  0.89203608  0.39297780  0.96990345     0.15400
C2230       C  0.89669008  0.35040630  0.97028812    -0.19100
C2231       C  0.91769332  0.41987963  0.96793115    -0.20900
C2232       C  0.91343682  0.46201508  0.97129939    -0.13500
C2233       C  0.88345795  0.47787622  0.97672925     0.03200
C2234       C  0.85734637  0.45129434  0.97668754    -0.25600
H2235       H  0.82061543  0.31977025  0.97884920     0.08300
H2236       H  0.81206882  0.39382695  0.97767193     0.11900
H2237       H  0.92039434  0.33818318  0.96921739     0.11800
H2238       H  0.94129916  0.40815496  0.96503778     0.11500
H2239       H  0.93387834  0.48182583  0.97124221     0.12100
H2240       H  0.83403674  0.46326464  0.98066522     0.14000
loop_ 
_geom_bond_atom_site_label_1 
_geom_bond_atom_site_label_2 
_geom_bond_distance 
_geom_bond_site_symmetry_2 
_ccdc_geom_bond_type 
O1           C16   1.261       .  A
O1           Al9   1.890   1_556  S
C2           O12   1.264   1_556  A
C2            O3   1.258       .  A
C2         C2193   1.482   1_556  S
O3           Al5   1.908       .  S
O4            C6   1.256       .  A
O4           Al5   1.883   1_554  S
Al5          O13   1.863       .  S
Al5          O15   1.946       .  S
Al5          O14   1.775   1_556  S
C6           O19   1.261       .  A
C6         C2161   1.462       .  S
O7           C17   1.259       .  A
O7           Al9   1.860       .  S
O8           C21   1.268   1_556  A
O8          Al18   1.950       .  S
Al9          O22   1.892       .  S
Al9          O19   1.921       .  S
Al9          O14   1.780       .  S
O10          C17   1.267       .  A
O10         Al18   1.917   1_554  S
O11          C20   1.267       .  A
O11         Al18   1.928       .  S
O12         Al18   1.935   1_554  S
O13          C20   1.260       .  A
O14         Al18   1.780   1_554  S
O15          C16   1.269       .  A
C16        C2225   1.477       .  S
C17        C2153   1.457       .  S
C20        C2177   1.462       .  S
C21          O22   1.256       .  A
C21        C2209   1.485       .  S
O23          C38   1.257       .  A
O23         Al31   1.865       .  S
C24          O34   1.268       .  A
C24          O25   1.266       .  A
C24        C2113   1.496       .  S
O25         Al27   1.945       .  S
O26          C28   1.252       .  A
O26         Al27   1.865       .  S
Al27         O35   1.857       .  S
Al27         O37   1.973       .  S
Al27         O36   1.772       .  S
C28          O41   1.264       .  A
C28        C2129   1.462       .  S
O29          C39   1.258       .  A
O29         Al31   1.855       .  S
O30          C43   1.271       .  A
O30         Al40   1.955       .  S
Al31         O44   1.916       .  S
Al31         O41   1.937       .  S
Al31         O36   1.771       .  S
O32          C39   1.269       .  A
O32         Al40   1.946       .  S
O33          C42   1.267       .  A
O33         Al40   1.939       .  S
O34         Al40   1.935       .  S
O35          C42   1.256       .  A
O36         Al40   1.773       .  S
O37          C38   1.273       .  A
C38        C2105   1.482       .  S
C39        C2065   1.464       .  S
C42        C2185   1.458       .  S
C43          O44   1.263       .  A
C43        C2081   1.493       .  S
O45          C60   1.260       .  A
O45         Al53   1.882   1_554  S
C46          O56   1.264       .  A
C46          O47   1.263       .  A
C46        C2025   1.489       .  S
O47         Al49   1.930       .  S
O48          C50   1.258   1_554  A
O48         Al49   1.888       .  S
Al49         O57   1.860       .  S
Al49         O59   1.925       .  S
Al49         O58   1.777       .  S
C50          O63   1.267       .  A
C50        C2041   1.476       .  S
O51          C61   1.263       .  A
O51         Al53   1.892       .  S
O52          C65   1.264   1_554  A
O52         Al62   1.916       .  S
Al53         O66   1.932       .  S
Al53         O63   1.947       .  S
Al53         O58   1.769   1_556  S
O54          C61   1.273       .  A
O54         Al62   1.956   1_556  S
O55          C64   1.272       .  A
O55         Al62   1.970       .  S
O56         Al62   1.913       .  S
O57          C64   1.253       .  A
O58         Al62   1.772       .  S
O59          C60   1.266       .  A
C60        C2169   1.465       .  S
C61        C1985   1.485       .  S
C64        C2001   1.479       .  S
C65          O66   1.265       .  A
C65        C2049   1.483       .  S
O67          C82   1.261       .  A
O67         Al75   1.883       .  S
C68          O78   1.264       .  A
C68          O69   1.264       .  A
C68        C1937   1.492       .  S
O69         Al71   1.929       .  S
O70          C72   1.258       .  A
O70         Al71   1.893       .  S
Al71         O79   1.862       .  S
Al71         O81   1.943       .  S
Al71         O80   1.779       .  S
C72          O85   1.262       .  A
C72        C1961   1.466       .  S
O73          C83   1.262       .  A
O73         Al75   1.887       .  S
O74          C87   1.265       .  A
O74         Al84   1.925       .  S
Al75         O88   1.915       .  S
Al75         O85   1.922       .  S
Al75         O80   1.769       .  S
O76          C83   1.274       .  A
O76         Al84   1.960       .  S
O77          C86   1.272       .  A
O77         Al84   1.968       .  S
O78         Al84   1.913       .  S
O79          C86   1.254       .  A
O80         Al84   1.776       .  S
O81          C82   1.269       .  A
C82        C1969   1.475       .  S
C83        C1913   1.487       .  S
C86        C2009   1.479       .  S
C87          O88   1.262       .  A
C87        C1921   1.491       .  S
O89         C104   1.258       .  A
O89         Al97   1.881       .  S
C90         O100   1.266       .  A
C90          O91   1.264       .  A
C90        C1881   1.482       .  S
O91         Al93   1.926       .  S
O92          C94   1.256       .  A
O92         Al93   1.879       .  S
Al93        O101   1.860       .  S
Al93        O103   1.950       .  S
Al93        O102   1.766       .  S
C94         O107   1.267       .  A
C94        C1977   1.469       .  S
O95         C105   1.260       .  A
O95         Al97   1.863       .  S
O96         C109   1.266       .  A
O96        Al106   1.929       .  S
Al97        O110   1.923       .  S
Al97        O107   1.949       .  S
Al97        O102   1.776       .  S
O98         C105   1.270       .  A
O98        Al106   1.941       .  S
O99         C108   1.266       .  A
O99        Al106   1.938       .  S
O100       Al106   1.929       .  S
O101        C108   1.255       .  A
O102       Al106   1.775       .  S
O103        C104   1.270       .  A
C104       C1865   1.475       .  S
C105       C1833   1.465       .  S
C108       C1897   1.454       .  S
C109        O110   1.262       .  A
C109       C1841   1.483       .  S
O111        C126   1.256       .  A
O111       Al119   1.865       .  S
C112        O122   1.266       .  A
C112        O113   1.266       .  A
C112       C1761   1.476       .  S
O113       Al115   1.929       .  S
O114        C116   1.254       .  A
O114       Al115   1.872       .  S
Al115       O123   1.852       .  S
Al115       O125   1.954       .  S
Al115       O124   1.757       .  S
C116        O129   1.266       .  A
C116       C1809   1.464       .  S
O117        C127   1.258       .  A
O117       Al119   1.848       .  S
O118        C131   1.265       .  A
O118       Al128   1.924       .  S
Al119       O132   1.916       .  S
Al119       O129   1.948       .  S
Al119       O124   1.771       .  S
O120        C127   1.274       .  A
O120       Al128   1.958       .  S
O121        C130   1.269       .  A
O121       Al128   1.954       .  S
O122       Al128   1.920       .  S
O123        C130   1.254       .  A
O124       Al128   1.773       .  S
O125        C126   1.271       .  A
C126       C1793   1.472       .  S
C127       C1745   1.464       .  S
C130       C1889   1.467       .  S
C131        O132   1.262       .  A
C131       C1785   1.475       .  S
O133        C148   1.258       .  A
O133       Al141   1.874       .  S
C134        O144   1.261       .  A
C134        O135   1.264       .  A
C134       C1705   1.482       .  S
O135       Al137   1.931       .  S
O136        C138   1.259       .  A
O136       Al137   1.890       .  S
Al137       O145   1.853       .  S
Al137       O147   1.934       .  S
Al137       O146   1.773       .  S
C138        O151   1.268       .  A
C138       C1713   1.472       .  S
O139        C149   1.260       .  A
O139       Al141   1.875       .  S
O140        C153   1.257       .  A
O140       Al150   1.879       .  S
Al141       O154   1.945       .  S
Al141       O151   1.946       .  S
Al141       O146   1.769       .  S
O142        C149   1.275       .  A
O142       Al150   1.962       .  S
O143        C152   1.273       .  A
O143       Al150   1.970       .  S
O144       Al150   1.897       .  S
O145        C152   1.253       .  A
O146       Al150   1.772       .  S
O147        C148   1.268       .  A
C148       C2137   1.466       .  S
C149       C1665   1.479       .  S
C152       C1729   1.480       .  S
C153        O154   1.265       .  A
C153       C1689   1.476       .  S
O155        C170   1.257       .  A
O155       Al163   1.884       .  S
C156        O166   1.267       .  A
C156        O157   1.264       .  A
C156       C1617   1.497       .  S
O157       Al159   1.924       .  S
O158        C160   1.260       .  A
O158       Al159   1.882       .  S
Al159       O167   1.862       .  S
Al159       O169   1.930       .  S
Al159       O168   1.770       .  S
C160        O173   1.271       .  A
C160       C1641   1.474       .  S
O161        C171   1.257       .  A
O161       Al163   1.873       .  S
O162        C175   1.261       .  A
O162       Al172   1.900       .  S
Al163       O176   1.948       .  S
Al163       O173   1.957       .  S
Al163       O168   1.773       .  S
O164        C171   1.272       .  A
O164       Al172   1.964       .  S
O165        C174   1.274       .  A
O165       Al172   1.972       .  S
O166       Al172   1.939       .  S
O167        C174   1.256       .  A
O168       Al172   1.775       .  S
O169        C170   1.264       .  A
C170       C1817   1.474       .  S
C171       C1601   1.479       .  S
C174       C1737   1.474       .  S
C175        O176   1.267       .  A
C175       C1649   1.490       .  S
O177        C192   1.264       .  A
O177       Al185   1.885       .  S
C178        O188   1.265       .  A
C178        O179   1.260       .  A
C178       C1521   1.498       .  S
O179       Al181   1.903       .  S
O180        C182   1.257       .  A
O180       Al181   1.904       .  S
Al181       O189   1.849       .  S
Al181       O191   1.927       .  S
Al181       O190   1.777       .  S
C182        O195   1.262       .  A
C182       C1537   1.475       .  S
O183        C193   1.265       .  A
O183       Al185   1.876       .  S
O184        C197   1.262       .  A
O184       Al194   1.936       .  S
Al185       O198   1.920       .  S
Al185       O195   1.932       .  S
Al185       O190   1.777       .  S
O186        C193   1.281       .  A
O186       Al194   1.980       .  S
O187        C196   1.273       .  A
O187       Al194   1.974       .  S
O188       Al194   1.933       .  S
O189        C196   1.252       .  A
O190       Al194   1.778       .  S
O191        C192   1.270       .  A
C192       C1561   1.471       .  S
C193       C1505   1.483       .  S
C196       C1569   1.485       .  S
C197        O198   1.259       .  A
C197       C1593   1.498       .  S
O199        C214   1.258       .  A
O199       Al207   1.880       .  S
C200        O210   1.265       .  A
C200        O201   1.266       .  A
C200       C1473   1.492       .  S
O201       Al203   1.919       .  S
O202        C204   1.259       .  A
O202       Al203   1.890       .  S
Al203       O211   1.866       .  S
Al203       O213   1.926       .  S
Al203       O212   1.767       .  S
C204        O217   1.268       .  A
C204       C1497   1.477       .  S
O205        C215   1.259       .  A
O205       Al207   1.873       .  S
O206        C219   1.260       .  A
O206       Al216   1.899       .  S
Al207       O220   1.939       .  S
Al207       O217   1.949       .  S
Al207       O212   1.775       .  S
O208        C215   1.276       .  A
O208       Al216   1.980       .  S
O209        C218   1.273       .  A
O209       Al216   1.977       .  S
O210       Al216   1.920       .  S
O211        C218   1.254       .  A
O212       Al216   1.778       .  S
O213        C214   1.267       .  A
C214       C1457   1.473       .  S
C215       C1425   1.486       .  S
C218       C1577   1.482       .  S
C219        O220   1.265       .  A
C219       C1441   1.485       .  S
O221        C236   1.257       .  A
O221       Al229   1.873   1_556  S
C222        O232   1.265   1_556  A
C222        O223   1.264       .  A
C222       C1353   1.491   1_556  S
O223       Al225   1.939       .  S
O224        C226   1.255       .  A
O224       Al225   1.874   1_554  S
Al225       O233   1.860       .  S
Al225       O235   1.966       .  S
Al225       O234   1.773   1_556  S
C226        O239   1.264       .  A
C226       C1361   1.459       .  S
O227        C237   1.256       .  A
O227       Al229   1.853       .  S
O228        C241   1.266   1_556  A
O228       Al238   1.935   1_556  S
Al229       O242   1.912       .  S
Al229       O239   1.933       .  S
Al229       O234   1.773       .  S
O230        C237   1.274       .  A
O230       Al238   1.963       .  S
O231        C240   1.274       .  A
O231       Al238   1.966   1_556  S
O232       Al238   1.924       .  S
O233        C240   1.257       .  A
O234       Al238   1.770       .  S
O235        C236   1.272       .  A
C236       C1417   1.478       .  S
C237       C1329   1.477       .  S
C240       C1377   1.470       .  S
C241        O242   1.260       .  A
C241       C1401   1.480       .  S
O243        C258   1.259       .  A
O243       Al251   1.877       .  S
C244        O254   1.267       .  A
C244        O245   1.264       .  A
C244       C1281   1.487       .  S
O245       Al247   1.912       .  S
O246        C248   1.253       .  A
O246       Al247   1.874       .  S
Al247       O255   1.875       .  S
Al247       O257   1.958       .  S
Al247       O256   1.766       .  S
C248        O261   1.260       .  A
C248       C1553   1.458       .  S
O249        C259   1.258       .  A
O249       Al251   1.854       .  S
O250        C263   1.268       .  A
O250       Al260   1.943       .  S
Al251       O264   1.904       .  S
Al251       O261   1.931       .  S
Al251       O256   1.780       .  S
O252        C259   1.274       .  A
O252       Al260   1.963       .  S
O253        C262   1.270       .  A
O253       Al260   1.952       .  S
O254       Al260   1.937       .  S
O255        C262   1.259       .  A
O256       Al260   1.780       .  S
O257        C258   1.273       .  A
C258       C1321   1.482       .  S
C259       C1265   1.474       .  S
C262       C1385   1.479       .  S
C263        O264   1.258       .  A
C263       C1305   1.477       .  S
O265        C280   1.258   1_556  A
O265       Al273   1.862       .  S
C266        O276   1.265       .  A
C266        O267   1.267       .  A
C266       C1201   1.491       .  S
O267       Al269   1.929       .  S
O268        C270   1.255       .  A
O268       Al269   1.888   1_556  S
Al269       O277   1.860       .  S
Al269       O279   1.937       .  S
Al269       O278   1.769   1_554  S
C270        O283   1.263       .  A
C270       C1225   1.477       .  S
O271        C281   1.264       .  A
O271       Al273   1.880       .  S
O272        C285   1.269   1_554  A
O272       Al282   1.937       .  S
Al273       O286   1.923       .  S
Al273       O283   1.943       .  S
Al273       O278   1.769       .  S
O274        C281   1.274       .  A
O274       Al282   1.955   1_556  S
O275        C284   1.269       .  A
O275       Al282   1.964       .  S
O276       Al282   1.911       .  S
O277        C284   1.251       .  A
O278       Al282   1.776   1_556  S
O279        C280   1.270       .  A
C280       C1369   1.464       .  S
C281       C1193   1.477       .  S
C284       C1233   1.475       .  S
C285        O286   1.264       .  A
C285       C1249   1.494       .  S
O287        C302   1.262       .  A
O287       Al295   1.903       .  S
C288        O298   1.266       .  A
C288        O289   1.263       .  A
C288       C1153   1.498       .  S
O289       Al291   1.919       .  S
O290        C292   1.264       .  A
O290       Al291   1.901       .  S
Al291       O299   1.879       .  S
Al291       O301   1.903       .  S
Al291       O300   1.770       .  S
C292        O305   1.265       .  A
C292       C1177   1.470       .  S
O293        C303   1.258       .  A
O293       Al295   1.872       .  S
O294        C307   1.263       .  A
O294       Al304   1.912       .  S
Al295       O308   1.924       .  S
Al295       O305   1.922       .  S
Al295       O300   1.777       .  S
O296        C303   1.273       .  A
O296       Al304   1.962       .  S
O297        C306   1.272       .  A
O297       Al304   1.962       .  S
O298       Al304   1.933       .  S
O299        C306   1.258       .  A
O300       Al304   1.777       .  S
O301        C302   1.262       .  A
C302       C1145   1.468       .  S
C303       C1113   1.481       .  S
C306       C1241   1.481       .  S
C307        O308   1.263       .  A
C307       C1121   1.485       .  S
O309        C324   1.260       .  A
O309       Al317   1.883       .  S
C310        O320   1.265       .  A
C310        O311   1.264       .  A
C310       C1089   1.485       .  S
O311       Al313   1.935       .  S
O312        C314   1.257       .  A
O312       Al313   1.878       .  S
Al313       O321   1.864       .  S
Al313       O323   1.939       .  S
Al313       O322   1.768       .  S
C314        O327   1.261       .  A
C314       C1137   1.463       .  S
O315        C325   1.261       .  A
O315       Al317   1.871       .  S
O316        C329   1.267       .  A
O316       Al326   1.939       .  S
Al317       O330   1.906       .  S
Al317       O327   1.929       .  S
Al317       O322   1.778       .  S
O318        C325   1.272       .  A
O318       Al326   1.942       .  S
O319        C328   1.267       .  A
O319       Al326   1.944       .  S
O320       Al326   1.920       .  S
O321        C328   1.255       .  A
O322       Al326   1.769       .  S
O323        C324   1.270       .  A
C324       C1065   1.470       .  S
C325       C1025   1.472       .  S
C328       C1081   1.461       .  S
C329        O330   1.259       .  A
C329       C1041   1.475       .  S
O331        C346   1.262       .  A
O331       Al339   1.883       .  S
C332        O342   1.265       .  A
C332        O333   1.261       .  A
C332       C1017   1.479       .  S
O333       Al335   1.907       .  S
O334        C336   1.251       .  A
O334       Al335   1.873       .  S
Al335       O343   1.855       .  S
Al335       O345   1.952       .  S
Al335       O344   1.761       .  S
C336        O349   1.260       .  A
C336       C1465   1.458       .  S
O337        C347   1.261       .  A
O337       Al339   1.856       .  S
O338        C351   1.267       .  A
O338       Al348   1.945       .  S
Al339       O352   1.906       .  S
Al339       O349   1.936       .  S
Al339       O344   1.783       .  S
O340        C347   1.276       .  A
O340       Al348   1.955       .  S
O341        C350   1.268       .  A
O341       Al348   1.947       .  S
O342       Al348   1.928       .  S
O343        C350   1.256       .  A
O344       Al348   1.777       .  S
O345        C346   1.273       .  A
C346       C1001   1.478       .  S
C347        C961   1.470       .  S
C350       C1073   1.473       .  S
C351        O352   1.257       .  A
C351        C977   1.481   1_655  S
O353        C368   1.256       .  A
O353       Al361   1.877       .  S
C354        O364   1.267       .  A
C354        O355   1.264       .  A
C354       C1625   1.486       .  S
O355       Al357   1.931       .  S
O356        C358   1.255       .  A
O356       Al357   1.867       .  S
Al357       O365   1.864       .  S
Al357       O367   1.959       .  S
Al357       O366   1.769       .  S
C358        O371   1.266       .  A
C358        C929   1.460       .  S
O359        C369   1.256       .  A
O359       Al361   1.855       .  S
O360        C373   1.266       .  A
O360       Al370   1.927       .  S
Al361       O374   1.915       .  S
Al361       O371   1.939       .  S
Al361       O366   1.775       .  S
O362        C369   1.270       .  A
O362       Al370   1.943       .  S
O363        C372   1.268       .  A
O363       Al370   1.944       .  S
O364       Al370   1.934       .  S
O365        C372   1.258       .  A
O366       Al370   1.773       .  S
O367        C368   1.269       .  A
C368        C993   1.479   1_545  S
C369       C2073   1.466       .  S
C372        C945   1.458       .  S
C373        O374   1.262       .  A
C373       C1449   1.479       .  S
O375        C390   1.261       .  A
O375       Al383   1.872       .  S
C376        O386   1.263       .  A
C376        O377   1.262       .  A
C376       C1945   1.477       .  S
O377       Al379   1.917       .  S
O378        C380   1.253       .  A
O378       Al379   1.879       .  S
Al379       O387   1.855       .  S
Al379       O389   1.950       .  S
Al379       O388   1.766       .  S
C380        O393   1.263       .  A
C380        C921   1.466       .  S
O381        C391   1.261       .  A
O381       Al383   1.854       .  S
O382        C395   1.266       .  A
O382       Al392   1.934       .  S
Al383       O396   1.914       .  S
Al383       O393   1.945       .  S
Al383       O388   1.779       .  S
O384        C391   1.271       .  A
O384       Al392   1.935       .  S
O385        C394   1.267       .  A
O385       Al392   1.938       .  S
O386       Al392   1.919       .  S
O387        C394   1.255       .  A
O388       Al392   1.773       .  S
O389        C390   1.272       .  A
C390       C1057   1.471   1_545  S
C391       C2145   1.458       .  S
C394        C953   1.466       .  S
C395        O396   1.260       .  A
C395       C1129   1.480   1_655  S
O397        C412   1.259       .  A
O397       Al405   1.868       .  S
C398        O408   1.265       .  A
C398        O399   1.266       .  A
C398       C2121   1.498       .  S
O399       Al401   1.936       .  S
O400        C402   1.256       .  A
O400       Al401   1.888   1_545  S
Al401       O409   1.860       .  S
Al401       O411   1.942       .  S
Al401       O410   1.777       .  S
C402        O415   1.263       .  A
C402       C1721   1.475       .  S
O403        C413   1.263       .  A
O403       Al405   1.889       .  S
O404        C417   1.268       .  A
O404       Al414   1.939       .  S
Al405       O418   1.920       .  S
Al405       O415   1.935   1_565  S
Al405       O410   1.772       .  S
O406        C413   1.270       .  A
O406       Al414   1.936       .  S
O407        C416   1.269       .  A
O407       Al414   1.964       .  S
O408       Al414   1.924       .  S
O409        C416   1.252       .  A
O410       Al414   1.777       .  S
O411        C412   1.270       .  A
C412        C881   1.471       .  S
C413       C1185   1.473       .  S
C416        C897   1.479       .  S
C417        O418   1.264       .  A
C417       C1297   1.497       .  S
O419        C434   1.254       .  A
O419       Al427   1.873       .  S
C420        O430   1.266       .  A
C420        O421   1.263       .  A
C420       C1769   1.489       .  S
O421       Al423   1.918       .  S
O422        C424   1.260       .  A
O422       Al423   1.880   1_545  S
Al423       O431   1.865       .  S
Al423       O433   1.927       .  S
Al423       O432   1.771       .  S
C424        O437   1.274       .  A
C424       C1633   1.476       .  S
O425        C435   1.257       .  A
O425       Al427   1.878       .  S
O426        C439   1.261       .  A
O426       Al436   1.889       .  S
Al427       O440   1.955       .  S
Al427       O437   1.963   1_565  S
Al427       O432   1.769       .  S
O428        C435   1.272       .  A
O428       Al436   1.959       .  S
O429        C438   1.276       .  A
O429       Al436   1.978       .  S
O430       Al436   1.933       .  S
O431        C438   1.257       .  A
O432       Al436   1.772       .  S
O433        C434   1.262       .  A
C434        C937   1.467       .  S
C435       C1105   1.481       .  S
C438        C905   1.477       .  S
C439        O440   1.270       .  A
C439        C985   1.492       .  S
O441        C456   1.258       .  A
O441       Al449   1.876   1_554  S
C442        O452   1.267       .  A
C442        O443   1.267       .  A
C442       C2201   1.495       .  S
O443       Al445   1.929       .  S
O444        C446   1.258   1_554  A
O444       Al445   1.892   1_545  S
Al445       O453   1.880       .  S
Al445       O455   1.929       .  S
Al445       O454   1.767       .  S
C446        O459   1.265       .  A
C446       C2033   1.475       .  S
O447        C457   1.260       .  A
O447       Al449   1.876       .  S
O448        C461   1.267   1_554  A
O448       Al458   1.934       .  S
Al449       O462   1.925       .  S
Al449       O459   1.942   1_565  S
Al449       O454   1.770   1_556  S
O450        C457   1.276       .  A
O450       Al458   1.979   1_556  S
O451        C460   1.274       .  A
O451       Al458   1.979       .  S
O452       Al458   1.926       .  S
O453        C460   1.255       .  A
O454       Al458   1.774       .  S
O455        C456   1.267       .  A
C456        C849   1.470       .  S
C457       C1513   1.488       .  S
C460        C873   1.487       .  S
C461        O462   1.265       .  A
C461       C1393   1.492       .  S
O463        C478   1.260       .  A
O463       Al471   1.884       .  S
C464        O474   1.266       .  A
C464        O465   1.266       .  A
C464       C1873   1.493       .  S
O465       Al467   1.928       .  S
O466        C468   1.258       .  A
O466       Al467   1.889   1_545  S
Al467       O475   1.872       .  S
Al467       O477   1.937       .  S
Al467       O476   1.768       .  S
C468        O481   1.263       .  A
C468       C1953   1.466       .  S
O469        C479   1.260       .  A
O469       Al471   1.880       .  S
O470        C483   1.266       .  A
O470       Al480   1.925       .  S
Al471       O484   1.918       .  S
Al471       O481   1.927   1_565  S
Al471       O476   1.771       .  S
O472        C479   1.277       .  A
O472       Al480   1.982       .  S
O473        C482   1.276       .  A
O473       Al480   1.986       .  S
O474       Al480   1.930       .  S
O475        C482   1.255       .  A
O476       Al480   1.773       .  S
O477        C478   1.268       .  A
C478        C913   1.477       .  S
C479       C1433   1.490       .  S
C482        C865   1.488       .  S
C483        O484   1.263       .  A
C483       C1049   1.488       .  S
O485        C500   1.260       .  A
O485       Al493   1.872   1_556  S
C486        O496   1.263       .  A
C486        O487   1.262   1_554  A
C486       C2017   1.486       .  S
O487       Al489   1.926       .  S
O488        C490   1.254       .  A
O488       Al489   1.885   1_554  S
Al489       O497   1.864       .  S
Al489       O499   1.965       .  S
Al489       O498   1.775   1_556  S
C490        O503   1.259       .  A
C490        C857   1.457       .  S
O491        C501   1.260       .  A
O491       Al493   1.858       .  S
O492        C505   1.266   1_556  A
O492       Al502   1.944   1_556  S
Al493       O506   1.894       .  S
Al493       O503   1.920       .  S
Al493       O498   1.779       .  S
O494        C501   1.273       .  A
O494       Al502   1.947       .  S
O495        C504   1.270       .  A
O495       Al502   1.950   1_556  S
O496       Al502   1.923       .  S
O497        C504   1.257       .  A
O498       Al502   1.774       .  S
O499        C500   1.274       .  A
C500       C1409   1.479   1_545  S
C501       C1825   1.468       .  S
C504        C833   1.471       .  S
C505        O506   1.255       .  A
C505       C1257   1.477   1_554  S
O507        C522   1.257       .  A
O507       Al515   1.865       .  S
C508        O518   1.263       .  A
C508        O509   1.264       .  A
C508       C1697   1.477       .  S
O509       Al511   1.929       .  S
O510        C512   1.253       .  A
O510       Al511   1.875       .  S
Al511       O519   1.869       .  S
Al511       O521   1.974       .  S
Al511       O520   1.771       .  S
C512        O525   1.263       .  A
C512        C889   1.463       .  S
O513        C523   1.257       .  A
O513       Al515   1.849       .  S
O514        C527   1.269       .  A
O514       Al524   1.945       .  S
Al515       O528   1.912       .  S
Al515       O525   1.939       .  S
Al515       O520   1.771       .  S
O516        C523   1.272       .  A
O516       Al524   1.954       .  S
O517        C526   1.271       .  A
O517       Al524   1.953       .  S
O518       Al524   1.916       .  S
O519        C526   1.259       .  A
O520       Al524   1.773       .  S
O521        C522   1.275       .  A
C522       C1313   1.479   1_545  S
C523       C1753   1.465       .  S
C526        C841   1.474       .  S
C527        O528   1.261       .  A
C527       C1585   1.484       .  S
O529        C544   1.260       .  A
O529       Al537   1.882   1_554  S
C530        O540   1.266   1_554  A
C530        O531   1.263       .  A
C530       C1345   1.491       .  S
O531       Al533   1.927       .  S
O532        C534   1.259       .  A
O532       Al533   1.892   1_556  S
Al533       O541   1.870       .  S
Al533       O543   1.919       .  S
Al533       O542   1.776   1_554  S
C534        O547   1.268       .  A
C534       C1217   1.476       .  S
O535        C545   1.264       .  A
O535       Al537   1.898       .  S
O536        C549   1.269   1_554  A
O536       Al546   1.937   1_554  S
Al537       O550   1.929       .  S
Al537       O547   1.945       .  S
Al537       O542   1.767       .  S
O538        C545   1.271       .  A
O538       Al546   1.946       .  S
O539        C548   1.273       .  A
O539       Al546   1.973   1_554  S
O540       Al546   1.928       .  S
O541        C548   1.254       .  A
O542       Al546   1.770       .  S
O543        C544   1.264       .  A
C544        C801   1.462       .  S
C545       C1673   1.483       .  S
C548        C825   1.480       .  S
C549        O550   1.266       .  A
C549       C2217   1.492       .  S
O551        C566   1.265       .  A
O551       Al559   1.903       .  S
C552        O562   1.261       .  A
C552        O553   1.261       .  A
C552       C1097   1.491       .  S
O553       Al555   1.925       .  S
O554        C556   1.263       .  A
O554       Al555   1.905       .  S
Al555       O563   1.867       .  S
Al555       O565   1.912       .  S
Al555       O564   1.778       .  S
C556        O569   1.263       .  A
C556       C1169   1.471       .  S
O557        C567   1.260       .  A
O557       Al559   1.871       .  S
O558        C571   1.261       .  A
O558       Al568   1.916       .  S
Al559       O572   1.921       .  S
Al559       O569   1.917       .  S
Al559       O564   1.775       .  S
O560        C567   1.275       .  A
O560       Al568   1.968       .  S
O561        C570   1.274       .  A
O561       Al568   1.969       .  S
O562       Al568   1.918       .  S
O563        C570   1.255       .  A
O564       Al568   1.776       .  S
O565        C566   1.264       .  A
C566        C785   1.471       .  S
C567       C1609   1.485       .  S
C570        C817   1.481       .  S
C571        O572   1.260       .  A
C571       C1849   1.483       .  S
O573        C588   1.261       .  A
O573       Al581   1.884   1_556  S
C574        O584   1.261   1_556  A
C574        O575   1.261       .  A
C574       C1209   1.476   1_556  S
O575       Al577   1.923       .  S
O576        C578   1.254       .  A
O576       Al577   1.879   1_554  S
Al577       O585   1.858       .  S
Al577       O587   1.952       .  S
Al577       O586   1.773   1_556  S
C578        O591   1.262       .  A
C578        C809   1.462       .  S
O579        C589   1.258       .  A
O579       Al581   1.857       .  S
O580        C593   1.268   1_556  A
O580       Al590   1.941   1_556  S
Al581       O594   1.896       .  S
Al581       O591   1.924       .  S
Al581       O586   1.775       .  S
O582        C589   1.271       .  A
O582       Al590   1.946       .  S
O583        C592   1.271       .  A
O583       Al590   1.957   1_556  S
O584       Al590   1.915       .  S
O585        C592   1.257       .  A
O586       Al590   1.777       .  S
O587        C588   1.271       .  A
C588       C2233   1.480       .  S
C589       C1033   1.464       .  S
C592        C769   1.470       .  S
C593        O594   1.259       .  A
C593       C2057   1.481       .  S
O595        C610   1.263       .  A
O595       Al603   1.886       .  S
C596        O606   1.265       .  A
C596        O597   1.263       .  A
C596       C1529   1.484       .  S
O597       Al599   1.914       .  S
O598        C600   1.252       .  A
O598       Al599   1.880       .  S
Al599       O607   1.873       .  S
Al599       O609   1.961       .  S
Al599       O608   1.765       .  S
C600        O613   1.256       .  A
C600        C761   1.453       .  S
O601        C611   1.261       .  A
O601       Al603   1.856       .  S
O602        C615   1.265       .  A
O602       Al612   1.943       .  S
Al603       O616   1.889       .  S
Al603       O613   1.918       .  S
Al603       O608   1.784       .  S
O604        C611   1.275       .  A
O604       Al612   1.957       .  S
O605        C614   1.266       .  A
O605       Al612   1.930       .  S
O606       Al612   1.928       .  S
O607        C614   1.258       .  A
O608       Al612   1.777       .  S
O609        C610   1.275       .  A
C610       C2097   1.481       .  S
C611        C969   1.469       .  S
C614        C777   1.470       .  S
C615        O616   1.255       .  A
C615       C1681   1.479   1_655  S
O617        C632   1.261       .  A
O617       Al625   1.882       .  S
C618        O628   1.266       .  A
C618        O619   1.261       .  A
C618       C1289   1.496       .  S
O619       Al621   1.904       .  S
O620        C622   1.258       .  A
O620       Al621   1.893       .  S
Al621       O629   1.852       .  S
Al621       O631   1.918       .  S
Al621       O630   1.770       .  S
C622        O635   1.266       .  A
C622       C1545   1.478       .  S
O623        C633   1.264       .  A
O623       Al625   1.882       .  S
O624        C637   1.262       .  A
O624       Al634   1.927       .  S
Al625       O638   1.936       .  S
Al625       O635   1.947       .  S
Al625       O630   1.778       .  S
O626        C633   1.278       .  A
O626       Al634   1.969       .  S
O627        C636   1.271       .  A
O627       Al634   1.968       .  S
O628       Al634   1.932       .  S
O629        C636   1.252       .  A
O630       Al634   1.776       .  S
O631        C632   1.267       .  A
C632        C753   1.468       .  S
C633       C1993   1.482       .  S
C636        C745   1.481       .  S
C637        O638   1.263       .  A
C637       C2089   1.498       .  S
O639        C654   1.260       .  A
O639       Al647   1.883       .  S
C640        O650   1.265       .  A
C640        O641   1.267       .  A
C640       C1009   1.492       .  S
O641       Al643   1.927       .  S
O642        C644   1.259       .  A
O642       Al643   1.898       .  S
Al643       O651   1.871       .  S
Al643       O653   1.935       .  S
Al643       O652   1.771       .  S
C644        O657   1.266       .  A
C644       C1489   1.475       .  S
O645        C655   1.262       .  A
O645       Al647   1.894       .  S
O646        C659   1.260       .  A
O646       Al656   1.892       .  S
Al647       O660   1.938       .  S
Al647       O657   1.937       .  S
Al647       O652   1.774       .  S
O648        C655   1.273       .  A
O648       Al656   1.957       .  S
O649        C658   1.269       .  A
O649       Al656   1.959       .  S
O650       Al656   1.910       .  S
O651        C658   1.254       .  A
O652       Al656   1.777       .  S
O653        C654   1.267       .  A
C654        C721   1.474       .  S
C655       C1905   1.481       .  S
C658        C737   1.475       .  S
C659        O660   1.265       .  A
C659       C1777   1.480       .  S
O661        C676   1.256       .  A
O661       Al669   1.864       .  S
C662        O672   1.265       .  A
C662        O663   1.262       .  A
C662       C1481   1.474       .  S
O663       Al665   1.911       .  S
O664        C666   1.252       .  A
O664       Al665   1.869       .  S
Al665       O673   1.866       .  S
Al665       O675   1.956       .  S
Al665       O674   1.769       .  S
C666        O679   1.264       .  A
C666        C729   1.466       .  S
O667        C677   1.258       .  A
O667       Al669   1.852       .  S
O668        C681   1.265       .  A
O668       Al678   1.934       .  S
Al669       O682   1.919       .  S
Al669       O679   1.948       .  S
Al669       O674   1.779       .  S
O670        C677   1.275       .  A
O670       Al678   1.959       .  S
O671        C680   1.268       .  A
O671       Al678   1.942       .  S
O672       Al678   1.919       .  S
O673        C680   1.258       .  A
O674       Al678   1.775       .  S
O675        C676   1.271       .  A
C676       C1801   1.471       .  S
C677       C1273   1.470       .  S
C680        C705   1.471       .  S
C681        O682   1.261       .  A
C681       C1657   1.486       .  S
O683        C698   1.258       .  A
O683       Al691   1.874       .  S
C684        O694   1.262       .  A
C684        O685   1.260       .  A
C684       C1161   1.483       .  S
O685       Al687   1.917       .  S
O686        C688   1.257       .  A
O686       Al687   1.883       .  S
Al687       O695   1.866       .  S
Al687       O697   1.961       .  S
Al687       O696   1.779       .  S
C688        O701   1.261       .  A
C688        C793   1.465       .  S
O689        C699   1.258       .  A
O689       Al691   1.853       .  S
O690        C703   1.263       .  A
O690       Al700   1.935       .  S
Al691       O704   1.892       .  S
Al691       O701   1.926       .  S
Al691       O696   1.783       .  S
O692        C699   1.273       .  A
O692       Al700   1.948       .  S
O693        C702   1.268       .  A
O693       Al700   1.940       .  S
O694       Al700   1.925       .  S
O695        C702   1.259       .  A
O696       Al700   1.782       .  S
O697        C698   1.271       .  A
C698       C1857   1.480       .  S
C699       C1337   1.467       .  S
C702        C713   1.465       .  S
C703        O704   1.254       .  A
C703       C1929   1.474       .  S
C705        C706   1.400       .  A
C705        C710   1.407       .  A
C706        C707   1.400       .  A
C706        H715   1.083       .  S
C707        C708   1.406       .  A
C707        H716   1.084       .  S
C708        C714   1.402       .  A
C708        C709   1.412       .  A
C709        C711   1.405       .  A
C709        C710   1.400       .  A
C710        H717   1.085       .  S
C711        C712   1.399       .  A
C711        H718   1.084       .  S
C712        C713   1.400       .  A
C712        H719   1.083       .  S
C713        C714   1.405       .  A
C714        H720   1.085       .  S
C721        C722   1.406       .  A
C721        C726   1.403       .  A
C722        C723   1.395       .  A
C722        H731   1.084       .  S
C723        C724   1.401       .  A
C723        H732   1.083       .  S
C724        C730   1.403       .  A
C724        C725   1.416       .  A
C725        C727   1.400       .  A
C725        C726   1.402       .  A
C726        H733   1.083       .  S
C727        C728   1.394       .  A
C727        H734   1.083       .  S
C728        C729   1.405       .  A
C728        H735   1.084       .  S
C729        C730   1.401       .  A
C730        H736   1.084       .  S
C737        C738   1.406       .  A
C737        C742   1.401       .  A
C738        C739   1.400       .  A
C738        H747   1.084       .  S
C739        C740   1.402       .  A
C739        H748   1.084       .  S
C740        C746   1.414       .  A
C740        C741   1.419       .  A
C741        C743   1.398       .  A
C741        C742   1.410       .  A
C742        H749   1.085       .  S
C743        C744   1.395       .  A
C743        H750   1.085       .  S
C744        C745   1.409       .  A
C744        H751   1.084       .  S
C745        C746   1.404       .  A
C746        H752   1.085       .  S
C753        C754   1.405       .  A
C753        C758   1.403       .  A
C754        C755   1.393       .  A
C754        H763   1.082       .  S
C755        C756   1.399       .  A
C755        H764   1.086       .  S
C756        C762   1.396       .  A
C756        C757   1.415       .  A
C757        C759   1.401       .  A
C757        C758   1.395       .  A
C758        H765   1.086       .  S
C759        C760   1.393       .  A
C759        H766   1.085       .  S
C760        C761   1.402       .  A
C760        H767   1.083       .  S
C761        C762   1.399       .  A
C762        H768   1.088       .  S
C769        C770   1.400       .  A
C769        C774   1.406       .  A
C770        C771   1.402       .  A
C770        H779   1.083       .  S
C771        C772   1.407       .  A
C771        H780   1.084       .  S
C772        C778   1.403       .  A
C772        C773   1.412       .  A
C773        C775   1.405       .  A
C773        C774   1.400       .  A
C774        H781   1.086       .  S
C775        C776   1.399       .  A
C775        H782   1.084       .  S
C776        C777   1.400       .  A
C776        H783   1.083       .  S
C777        C778   1.408       .  A
C778        H784   1.085       .  S
C785        C786   1.406       .  A
C785        C790   1.403       .  A
C786        C787   1.392       .  A
C786        H795   1.083       .  S
C787        C788   1.399       .  A
C787        H796   1.084       .  S
C788        C794   1.397       .  A
C788        C789   1.415       .  A
C789        C791   1.402       .  A
C789        C790   1.401       .  A
C790        H797   1.084       .  S
C791        C792   1.396       .  A
C791        H798   1.083       .  S
C792        C793   1.403       .  A
C792        H799   1.084       .  S
C793        C794   1.401       .  A
C794        H800   1.085       .  S
C801        C802   1.403       .  A
C801        C806   1.401       .  A
C802        C803   1.392       .  A
C802        H811   1.083       .  S
C803        C804   1.400   1_455  A
C803        H812   1.083   1_455  S
C804        C810   1.396       .  A
C804        C805   1.416   1_655  A
C805        C807   1.401       .  A
C805        C806   1.399       .  A
C806        H813   1.084       .  S
C807        C808   1.394   1_455  A
C807        H814   1.082       .  S
C808        C809   1.404       .  A
C808        H815   1.084       .  S
C809        C810   1.399       .  A
C810        H816   1.084       .  S
C817        C818   1.401       .  A
C817        C822   1.411       .  A
C818        C819   1.404       .  A
C818        H827   1.083       .  S
C819        C820   1.408       .  A
C819        H828   1.084       .  S
C820        C826   1.409       .  A
C820        C821   1.412       .  A
C821        C823   1.407       .  A
C821        C822   1.408       .  A
C822        H829   1.086       .  S
C823        C824   1.403       .  A
C823        H830   1.085       .  S
C824        C825   1.402       .  A
C824        H831   1.083       .  S
C825        C826   1.411       .  A
C826        H832   1.086       .  S
C833        C834   1.400       .  A
C833        C838   1.407       .  A
C834        C835   1.402       .  A
C834        H843   1.083       .  S
C835        C836   1.407       .  A
C835        H844   1.084       .  S
C836        C842   1.404       .  A
C836        C837   1.412       .  A
C837        C839   1.406       .  A
C837        C838   1.403       .  A
C838        H845   1.085       .  S
C839        C840   1.401       .  A
C839        H846   1.083       .  S
C840        C841   1.400       .  A
C840        H847   1.083       .  S
C841        C842   1.409       .  A
C842        H848   1.085       .  S
C849        C850   1.406       .  A
C849        C854   1.402   1_565  A
C850        C851   1.393       .  A
C850        H859   1.084       .  S
C851        C852   1.399       .  A
C851        H860   1.083       .  S
C852        C858   1.397   1_565  A
C852        C853   1.416   1_565  A
C853        C855   1.402       .  A
C853        C854   1.399       .  A
C854        H861   1.084       .  S
C855        C856   1.394       .  A
C855        H862   1.084       .  S
C856        C857   1.402       .  A
C856        H863   1.083       .  S
C857        C858   1.399       .  A
C858        H864   1.085   1_545  S
C865        C866   1.403       .  A
C865        C870   1.413       .  A
C866        C867   1.406       .  A
C866        H875   1.083       .  S
C867        C868   1.408       .  A
C867        H876   1.084       .  S
C868        C874   1.413       .  A
C868        C869   1.412       .  A
C869        C871   1.407       .  A
C869        C870   1.411       .  A
C870        H877   1.085       .  S
C871        C872   1.404       .  A
C871        H878   1.084       .  S
C872        C873   1.403       .  A
C872        H879   1.083       .  S
C873        C874   1.413       .  A
C874        H880   1.085       .  S
C881        C882   1.406       .  A
C881        C886   1.402   1_565  A
C882        C883   1.392       .  A
C882        H891   1.084       .  S
C883        C884   1.398   1_565  A
C883        H892   1.083       .  S
C884        C890   1.400       .  A
C884        C885   1.417       .  A
C885        C887   1.401       .  A
C885        C886   1.404       .  A
C886        H893   1.084       .  S
C887        C888   1.396       .  A
C887        H894   1.083       .  S
C888        C889   1.405       .  A
C888        H895   1.084       .  S
C889        C890   1.399       .  A
C890        H896   1.084   1_545  S
C897        C898   1.407       .  A
C897        C902   1.404       .  A
C898        C899   1.397       .  A
C898        H907   1.084       .  S
C899        C900   1.400       .  A
C899        H908   1.085       .  S
C900        C906   1.412       .  A
C900        C901   1.419       .  A
C901        C903   1.401       .  A
C901        C902   1.414       .  A
C902        H909   1.085       .  S
C903        C904   1.399       .  A
C903        H910   1.085       .  S
C904        C905   1.407       .  A
C904        H911   1.084       .  S
C905        C906   1.403       .  A
C906        H912   1.086       .  S
C913        C914   1.406       .  A
C913        C918   1.405   1_565  A
C914        C915   1.395       .  A
C914        H923   1.084       .  S
C915        C916   1.400       .  A
C915        H924   1.084       .  S
C916        C922   1.402       .  A
C916        C917   1.416   1_565  A
C917        C919   1.402       .  A
C917        C918   1.404       .  A
C918        H925   1.084       .  S
C919        C920   1.396       .  A
C919        H926   1.084       .  S
C920        C921   1.404       .  A
C920        H927   1.083       .  S
C921        C922   1.402   1_545  A
C922        H928   1.085       .  S
C929        C930   1.404       .  A
C929        C934   1.398       .  A
C930        C931   1.394   1_655  A
C930        H939   1.084       .  S
C931        C932   1.400       .  A
C931        H940   1.084       .  S
C932        C938   1.400       .  A
C932        C933   1.417   1_445  A
C933        C935   1.399   1_655  A
C933        C934   1.399   1_565  A
C934        H941   1.086   1_545  S
C935        C936   1.392       .  A
C935        H942   1.085   1_455  S
C936        C937   1.405       .  A
C936        H943   1.083       .  S
C937        C938   1.401   1_565  A
C938        H944   1.085       .  S
C945        C946   1.398       .  A
C945        C950   1.404       .  A
C946        C947   1.398       .  A
C946        H955   1.084       .  S
C947        C948   1.406       .  A
C947        H956   1.083       .  S
C948        C954   1.396       .  A
C948        C949   1.412       .  A
C949        C951   1.406       .  A
C949        C950   1.398       .  A
C950        H957   1.085       .  S
C951        C952   1.399       .  A
C951        H958   1.083       .  S
C952        C953   1.400       .  A
C952        H959   1.083       .  S
C953        C954   1.406       .  A
C954        H960   1.084       .  S
C961        C962   1.401       .  A
C961        C966   1.408       .  A
C962        C963   1.396       .  A
C962        H971   1.083       .  S
C963        C964   1.404       .  A
C963        H972   1.085       .  S
C964        C970   1.395       .  A
C964        C965   1.411       .  A
C965        C967   1.405       .  A
C965        C966   1.398       .  A
C966        H973   1.085       .  S
C967        C968   1.399       .  A
C967        H974   1.085       .  S
C968        C969   1.401       .  A
C968        H975   1.082       .  S
C969        C970   1.406       .  A
C970        H976   1.086       .  S
C977        C978   1.404       .  A
C977        C982   1.407       .  A
C978        C979   1.405       .  A
C978        H987   1.083   1_455  S
C979        C980   1.407       .  A
C979        H988   1.084       .  S
C980        C986   1.415       .  A
C980        C981   1.414       .  A
C981        C983   1.400       .  A
C981        C982   1.407       .  A
C982        H989   1.085       .  S
C983        C984   1.397       .  A
C983        H990   1.084       .  S
C984        C985   1.408       .  A
C984        H991   1.083       .  S
C985        C986   1.411       .  A
C986        H992   1.084       .  S
C993        C994   1.407       .  A
C993        C998   1.405       .  A
C994        C995   1.395       .  A
C994       H1003   1.084       .  S
C995        C996   1.400       .  A
C995       H1004   1.084       .  S
C996       C1002   1.404       .  A
C996        C997   1.416       .  A
C997        C999   1.402       .  A
C997        C998   1.407       .  A
C998       H1005   1.084       .  S
C999       C1000   1.398       .  A
C999       H1006   1.084       .  S
C1000      C1001   1.407       .  A
C1000      H1007   1.084       .  S
C1001      C1002   1.404       .  A
C1002      H1008   1.085       .  S
C1009      C1010   1.408       .  A
C1009      C1014   1.408       .  A
C1010      C1011   1.405       .  A
C1010      H1019   1.083       .  S
C1011      C1012   1.405       .  A
C1011      H1020   1.083       .  S
C1012      C1018   1.415       .  A
C1012      C1013   1.415       .  A
C1013      C1015   1.401       .  A
C1013      C1014   1.406       .  A
C1014      H1021   1.085       .  S
C1015      C1016   1.396       .  A
C1015      H1022   1.084       .  S
C1016      C1017   1.403       .  A
C1016      H1023   1.084       .  S
C1017      C1018   1.408       .  A
C1018      H1024   1.084       .  S
C1025      C1026   1.403       .  A
C1025      C1030   1.408       .  A
C1026      C1027   1.395       .  A
C1026      H1035   1.082       .  S
C1027      C1028   1.402       .  A
C1027      H1036   1.085       .  S
C1028      C1034   1.396       .  A
C1028      C1029   1.412       .  A
C1029      C1031   1.406       .  A
C1029      C1030   1.400       .  A
C1030      H1037   1.085       .  S
C1031      C1032   1.399       .  A
C1031      H1038   1.085       .  S
C1032      C1033   1.401       .  A
C1032      H1039   1.083       .  S
C1033      C1034   1.403       .  A
C1034      H1040   1.086       .  S
C1041      C1042   1.404       .  A
C1041      C1046   1.405       .  A
C1042      C1043   1.400       .  A
C1042      H1051   1.084       .  S
C1043      C1044   1.403       .  A
C1043      H1052   1.082       .  S
C1044      C1050   1.411       .  A
C1044      C1045   1.416       .  A
C1045      C1047   1.402       .  A
C1045      C1046   1.410       .  A
C1046      H1053   1.083       .  S
C1047      C1048   1.399       .  A
C1047      H1054   1.081       .  S
C1048      C1049   1.408       .  A
C1048      H1055   1.084       .  S
C1049      C1050   1.408       .  A
C1050      H1056   1.082       .  S
C1057      C1058   1.407       .  A
C1057      C1062   1.403       .  A
C1058      C1059   1.392       .  A
C1058      H1067   1.081       .  S
C1059      C1060   1.399       .  A
C1059      H1068   1.088       .  S
C1060      C1066   1.398       .  A
C1060      C1061   1.416       .  A
C1061      C1063   1.401       .  A
C1061      C1062   1.402       .  A
C1062      H1069   1.087       .  S
C1063      C1064   1.396       .  A
C1063      H1070   1.087       .  S
C1064      C1065   1.406       .  A
C1064      H1071   1.082       .  S
C1065      C1066   1.401       .  A
C1066      H1072   1.089       .  S
C1073      C1074   1.401       .  A
C1073      C1078   1.407       .  A
C1074      C1075   1.403       .  A
C1074      H1083   1.083       .  S
C1075      C1076   1.408       .  A
C1075      H1084   1.083       .  S
C1076      C1082   1.403       .  A
C1076      C1077   1.412       .  A
C1077      C1079   1.405       .  A
C1077      C1078   1.397       .  A
C1078      H1085   1.085       .  S
C1079      C1080   1.397       .  A
C1079      H1086   1.084       .  S
C1080      C1081   1.399       .  A
C1080      H1087   1.084       .  S
C1081      C1082   1.406       .  A
C1082      H1088   1.085       .  S
C1089      C1090   1.403       .  A
C1089      C1094   1.410       .  A
C1090      C1091   1.401       .  A
C1090      H1099   1.083       .  S
C1091      C1092   1.404       .  A
C1091      H1100   1.084       .  S
C1092      C1098   1.412   1_655  A
C1092      C1093   1.415       .  A
C1093      C1095   1.405       .  A
C1093      C1094   1.415       .  A
C1094      H1101   1.085       .  S
C1095      C1096   1.404   1_655  A
C1095      H1102   1.084       .  S
C1096      C1097   1.407       .  A
C1096      H1103   1.083       .  S
C1097      C1098   1.409       .  A
C1098      H1104   1.085       .  S
C1105      C1106   1.403       .  A
C1105      C1110   1.411       .  A
C1106      C1107   1.400       .  A
C1106      H1115   1.083       .  S
C1107      C1108   1.404       .  A
C1107      H1116   1.084       .  S
C1108      C1114   1.404       .  A
C1108      C1109   1.412       .  A
C1109      C1111   1.406       .  A
C1109      C1110   1.408       .  A
C1110      H1117   1.085       .  S
C1111      C1112   1.403       .  A
C1111      H1118   1.084       .  S
C1112      C1113   1.404       .  A
C1112      H1119   1.083       .  S
C1113      C1114   1.409       .  A
C1114      H1120   1.085       .  S
C1121      C1122   1.405       .  A
C1121      C1126   1.410       .  A
C1122      C1123   1.400   1_565  A
C1122      H1131   1.083       .  S
C1123      C1124   1.404       .  A
C1123      H1132   1.084       .  S
C1124      C1130   1.407       .  A
C1124      C1125   1.413       .  A
C1125      C1127   1.406       .  A
C1125      C1126   1.409   1_545  A
C1126      H1133   1.085       .  S
C1127      C1128   1.403       .  A
C1127      H1134   1.084       .  S
C1128      C1129   1.403       .  A
C1128      H1135   1.083   1_455  S
C1129      C1130   1.408       .  A
C1130      H1136   1.085       .  S
C1137      C1138   1.404       .  A
C1137      C1142   1.398       .  A
C1138      C1139   1.398       .  A
C1138      H1147   1.084       .  S
C1139      C1140   1.403   1_655  A
C1139      H1148   1.083       .  S
C1140      C1146   1.404       .  A
C1140      C1141   1.416       .  A
C1141      C1143   1.396       .  A
C1141      C1142   1.394   1_455  A
C1142      H1149   1.086       .  S
C1143      C1144   1.388       .  A
C1143      H1150   1.084       .  S
C1144      C1145   1.406       .  A
C1144      H1151   1.083       .  S
C1145      C1146   1.404       .  A
C1146      H1152   1.084       .  S
C1153      C1154   1.407       .  A
C1153      C1158   1.412       .  A
C1154      C1155   1.407       .  A
C1154      H1163   1.083       .  S
C1155      C1156   1.407       .  A
C1155      H1164   1.083       .  S
C1156      C1162   1.417       .  A
C1156      C1157   1.414       .  A
C1157      C1159   1.403       .  A
C1157      C1158   1.409       .  A
C1158      H1165   1.084       .  S
C1159      C1160   1.399       .  A
C1159      H1166   1.084       .  S
C1160      C1161   1.403       .  A
C1160      H1167   1.084       .  S
C1161      C1162   1.411       .  A
C1162      H1168   1.084       .  S
C1169      C1170   1.406       .  A
C1169      C1174   1.402       .  A
C1170      C1171   1.394       .  A
C1170      H1179   1.083       .  S
C1171      C1172   1.399       .  A
C1171      H1180   1.085       .  S
C1172      C1178   1.402       .  A
C1172      C1173   1.416       .  A
C1173      C1175   1.400       .  A
C1173      C1174   1.403       .  A
C1174      H1181   1.086       .  S
C1175      C1176   1.395       .  A
C1175      H1182   1.085       .  S
C1176      C1177   1.406       .  A
C1176      H1183   1.083       .  S
C1177      C1178   1.401       .  A
C1178      H1184   1.086       .  S
C1185      C1186   1.404       .  A
C1185      C1190   1.406       .  A
C1186      C1187   1.395       .  A
C1186      H1195   1.083       .  S
C1187      C1188   1.401       .  A
C1187      H1196   1.084       .  S
C1188      C1194   1.400       .  A
C1188      C1189   1.413       .  A
C1189      C1191   1.403       .  A
C1189      C1190   1.404       .  A
C1190      H1197   1.085       .  S
C1191      C1192   1.399       .  A
C1191      H1198   1.084       .  S
C1192      C1193   1.405       .  A
C1192      H1199   1.083       .  S
C1193      C1194   1.405       .  A
C1194      H1200   1.085       .  S
C1201      C1202   1.408   1_454  A
C1201      C1206   1.408   1_455  A
C1202      C1203   1.403       .  A
C1202      H1211   1.083       .  S
C1203      C1204   1.404       .  A
C1203      H1212   1.084       .  S
C1204      C1210   1.413       .  A
C1204      C1205   1.415   1_556  A
C1205      C1207   1.403       .  A
C1205      C1206   1.409       .  A
C1206      H1213   1.085   1_655  S
C1207      C1208   1.398       .  A
C1207      H1214   1.084       .  S
C1208      C1209   1.403       .  A
C1208      H1215   1.084       .  S
C1209      C1210   1.406   1_554  A
C1210      H1216   1.084       .  S
C1217      C1218   1.405       .  A
C1217      C1222   1.404       .  A
C1218      C1219   1.400       .  A
C1218      H1227   1.083       .  S
C1219      C1220   1.404       .  A
C1219      H1228   1.084       .  S
C1220      C1226   1.408       .  A
C1220      C1221   1.415       .  A
C1221      C1223   1.402       .  A
C1221      C1222   1.405       .  A
C1222      H1229   1.086       .  S
C1223      C1224   1.397       .  A
C1223      H1230   1.085       .  S
C1224      C1225   1.404       .  A
C1224      H1231   1.083       .  S
C1225      C1226   1.407       .  A
C1226      H1232   1.085       .  S
C1233      C1234   1.402       .  A
C1233      C1238   1.409       .  A
C1234      C1235   1.402       .  A
C1234      H1243   1.083       .  S
C1235      C1236   1.406       .  A
C1235      H1244   1.084       .  S
C1236      C1242   1.407       .  A
C1236      C1237   1.412       .  A
C1237      C1239   1.407       .  A
C1237      C1238   1.408       .  A
C1238      H1245   1.086       .  S
C1239      C1240   1.403       .  A
C1239      H1246   1.084       .  S
C1240      C1241   1.402       .  A
C1240      H1247   1.083       .  S
C1241      C1242   1.410       .  A
C1242      H1248   1.086       .  S
C1249      C1250   1.411       .  A
C1249      C1254   1.408   1_566  A
C1250      C1251   1.398   1_565  A
C1250      H1259   1.083       .  S
C1251      C1252   1.400       .  A
C1251      H1260   1.084   1_545  S
C1252      C1258   1.412       .  A
C1252      C1253   1.416       .  A
C1253      C1255   1.403   1_556  A
C1253      C1254   1.414   1_556  A
C1254      H1261   1.085       .  S
C1255      C1256   1.401       .  A
C1255      H1262   1.085       .  S
C1256      C1257   1.405   1_554  A
C1256      H1263   1.083       .  S
C1257      C1258   1.405       .  A
C1258      H1264   1.086       .  S
C1265      C1266   1.402       .  A
C1265      C1270   1.408       .  A
C1266      C1267   1.401       .  A
C1266      H1275   1.082       .  S
C1267      C1268   1.407       .  A
C1267      H1276   1.085       .  S
C1268      C1274   1.400       .  A
C1268      C1269   1.410       .  A
C1269      C1271   1.405       .  A
C1269      C1270   1.396       .  A
C1270      H1277   1.086       .  S
C1271      C1272   1.397       .  A
C1271      H1278   1.085       .  S
C1272      C1273   1.400       .  A
C1272      H1279   1.083       .  S
C1273      C1274   1.410       .  A
C1274      H1280   1.086       .  S
C1281      C1282   1.405       .  A
C1281      C1286   1.413       .  A
C1282      C1283   1.393       .  A
C1282      H1291   1.084       .  S
C1283      C1284   1.399       .  A
C1283      H1292   1.084       .  S
C1284      C1290   1.405       .  A
C1284      C1285   1.414       .  A
C1285      C1287   1.409       .  A
C1285      C1286   1.421       .  A
C1286      H1293   1.083       .  S
C1287      C1288   1.410       .  A
C1287      H1294   1.083       .  S
C1288      C1289   1.407       .  A
C1288      H1295   1.083       .  S
C1289      C1290   1.409       .  A
C1290      H1296   1.084       .  S
C1297      C1298   1.410       .  A
C1297      C1302   1.412       .  A
C1298      C1299   1.396       .  A
C1298      H1307   1.083       .  S
C1299      C1300   1.399       .  A
C1299      H1308   1.084       .  S
C1300      C1306   1.408       .  A
C1300      C1301   1.415       .  A
C1301      C1303   1.407       .  A
C1301      C1302   1.417       .  A
C1302      H1309   1.084       .  S
C1303      C1304   1.406       .  A
C1303      H1310   1.084       .  S
C1304      C1305   1.404       .  A
C1304      H1311   1.083       .  S
C1305      C1306   1.404       .  A
C1306      H1312   1.085       .  S
C1313      C1314   1.408       .  A
C1313      C1318   1.405       .  A
C1314      C1315   1.395       .  A
C1314      H1323   1.084       .  S
C1315      C1316   1.399       .  A
C1315      H1324   1.083       .  S
C1316      C1322   1.406       .  A
C1316      C1317   1.416       .  A
C1317      C1319   1.401       .  A
C1317      C1318   1.409       .  A
C1318      H1325   1.084       .  S
C1319      C1320   1.399       .  A
C1319      H1326   1.084       .  S
C1320      C1321   1.409       .  A
C1320      H1327   1.083       .  S
C1321      C1322   1.404       .  A
C1322      H1328   1.084       .  S
C1329      C1330   1.410       .  A
C1329      C1334   1.401       .  A
C1330      C1331   1.391       .  A
C1330      H1339   1.083       .  S
C1331      C1332   1.396       .  A
C1331      H1340   1.084       .  S
C1332      C1338   1.402       .  A
C1332      C1333   1.418       .  A
C1333      C1335   1.399       .  A
C1333      C1334   1.405       .  A
C1334      H1341   1.085       .  S
C1335      C1336   1.395       .  A
C1335      H1342   1.084       .  S
C1336      C1337   1.406       .  A
C1336      H1343   1.083       .  S
C1337      C1338   1.398       .  A
C1338      H1344   1.085       .  S
C1345      C1346   1.406   1_554  A
C1345      C1350   1.410       .  A
C1346      C1347   1.404       .  A
C1346      H1355   1.084       .  S
C1347      C1348   1.405       .  A
C1347      H1356   1.083       .  S
C1348      C1354   1.415       .  A
C1348      C1349   1.414   1_556  A
C1349      C1351   1.405       .  A
C1349      C1350   1.414       .  A
C1350      H1357   1.084       .  S
C1351      C1352   1.403       .  A
C1351      H1358   1.083       .  S
C1352      C1353   1.405       .  A
C1352      H1359   1.083       .  S
C1353      C1354   1.411   1_554  A
C1354      H1360   1.084       .  S
C1361      C1362   1.403       .  A
C1361      C1366   1.398       .  A
C1362      C1363   1.393       .  A
C1362      H1371   1.084       .  S
C1363      C1364   1.400       .  A
C1363      H1372   1.082       .  S
C1364      C1370   1.399       .  A
C1364      C1365   1.417       .  A
C1365      C1367   1.399       .  A
C1365      C1366   1.398       .  A
C1366      H1373   1.084       .  S
C1367      C1368   1.391       .  A
C1367      H1374   1.082       .  S
C1368      C1369   1.406       .  A
C1368      H1375   1.085       .  S
C1369      C1370   1.399       .  A
C1370      H1376   1.083       .  S
C1377      C1378   1.401       .  A
C1377      C1382   1.407       .  A
C1378      C1379   1.401       .  A
C1378      H1387   1.083       .  S
C1379      C1380   1.407       .  A
C1379      H1388   1.084       .  S
C1380      C1386   1.405       .  A
C1380      C1381   1.412       .  A
C1381      C1383   1.407       .  A
C1381      C1382   1.405       .  A
C1382      H1389   1.086       .  S
C1383      C1384   1.402       .  A
C1383      H1390   1.085       .  S
C1384      C1385   1.402       .  A
C1384      H1391   1.083       .  S
C1385      C1386   1.409       .  A
C1386      H1392   1.086       .  S
C1393      C1394   1.408       .  A
C1393      C1398   1.410   1_556  A
C1394      C1395   1.399       .  A
C1394      H1403   1.086       .  S
C1395      C1396   1.401       .  A
C1395      H1404   1.080       .  S
C1396      C1402   1.412       .  A
C1396      C1397   1.416   1_556  A
C1397      C1399   1.404       .  A
C1397      C1398   1.415       .  A
C1398      H1405   1.081       .  S
C1399      C1400   1.402       .  A
C1399      H1406   1.082       .  S
C1400      C1401   1.405       .  A
C1400      H1407   1.083       .  S
C1401      C1402   1.404   1_554  A
C1402      H1408   1.082       .  S
C1409      C1410   1.408       .  A
C1409      C1414   1.404       .  A
C1410      C1411   1.395       .  A
C1410      H1419   1.084       .  S
C1411      C1412   1.400       .  A
C1411      H1420   1.085       .  S
C1412      C1418   1.407       .  A
C1412      C1413   1.417       .  A
C1413      C1415   1.400       .  A
C1413      C1414   1.407       .  A
C1414      H1421   1.086       .  S
C1415      C1416   1.396       .  A
C1415      H1422   1.084       .  S
C1416      C1417   1.407       .  A
C1416      H1423   1.085       .  S
C1417      C1418   1.403       .  A
C1418      H1424   1.086       .  S
C1425      C1426   1.407       .  A
C1425      C1430   1.407       .  A
C1426      C1427   1.399       .  A
C1426      H1435   1.083       .  S
C1427      C1428   1.401       .  A
C1427      H1436   1.085       .  S
C1428      C1434   1.413       .  A
C1428      C1429   1.417       .  A
C1429      C1431   1.401       .  A
C1429      C1430   1.414       .  A
C1430      H1437   1.085       .  S
C1431      C1432   1.400       .  A
C1431      H1438   1.084       .  S
C1432      C1433   1.409       .  A
C1432      H1439   1.083       .  S
C1433      C1434   1.406       .  A
C1434      H1440   1.085       .  S
C1441      C1442   1.407       .  A
C1441      C1446   1.408       .  A
C1442      C1443   1.398   1_565  A
C1442      H1451   1.084       .  S
C1443      C1444   1.402       .  A
C1443      H1452   1.084       .  S
C1444      C1450   1.407       .  A
C1444      C1445   1.414       .  A
C1445      C1447   1.405       .  A
C1445      C1446   1.411   1_545  A
C1446      H1453   1.084       .  S
C1447      C1448   1.403       .  A
C1447      H1454   1.083       .  S
C1448      C1449   1.403       .  A
C1448      H1455   1.083       .  S
C1449      C1450   1.407       .  A
C1450      H1456   1.085       .  S
C1457      C1458   1.407       .  A
C1457      C1462   1.403       .  A
C1458      C1459   1.395       .  A
C1458      H1467   1.084       .  S
C1459      C1460   1.401       .  A
C1459      H1468   1.083       .  S
C1460      C1466   1.401       .  A
C1460      C1461   1.416       .  A
C1461      C1463   1.400       .  A
C1461      C1462   1.398       .  A
C1462      H1469   1.084       .  S
C1463      C1464   1.393       .  A
C1463      H1470   1.083       .  S
C1464      C1465   1.402       .  A
C1464      H1471   1.084       .  S
C1465      C1466   1.401       .  A
C1466      H1472   1.085       .  S
C1473      C1474   1.409       .  A
C1473      C1478   1.412       .  A
C1474      C1475   1.396       .  A
C1474      H1483   1.083       .  S
C1475      C1476   1.399       .  A
C1475      H1484   1.084       .  S
C1476      C1482   1.406       .  A
C1476      C1477   1.415       .  A
C1477      C1479   1.407       .  A
C1477      C1478   1.414       .  A
C1478      H1485   1.084       .  S
C1479      C1480   1.404       .  A
C1479      H1486   1.084       .  S
C1480      C1481   1.403       .  A
C1480      H1487   1.083       .  S
C1481      C1482   1.403       .  A
C1482      H1488   1.085       .  S
C1489      C1490   1.404       .  A
C1489      C1494   1.407       .  A
C1490      C1491   1.395       .  A
C1490      H1499   1.083       .  S
C1491      C1492   1.401       .  A
C1491      H1500   1.085       .  S
C1492      C1498   1.403       .  A
C1492      C1493   1.415       .  A
C1493      C1495   1.404       .  A
C1493      C1494   1.409       .  A
C1494      H1501   1.085       .  S
C1495      C1496   1.402       .  A
C1495      H1502   1.084       .  S
C1496      C1497   1.405       .  A
C1496      H1503   1.083       .  S
C1497      C1498   1.404       .  A
C1498      H1504   1.086       .  S
C1505      C1506   1.407       .  A
C1505      C1510   1.405       .  A
C1506      C1507   1.399       .  A
C1506      H1515   1.083       .  S
C1507      C1508   1.401       .  A
C1507      H1516   1.084       .  S
C1508      C1514   1.413       .  A
C1508      C1509   1.417       .  A
C1509      C1511   1.400       .  A
C1509      C1510   1.412       .  A
C1510      H1517   1.085       .  S
C1511      C1512   1.398       .  A
C1511      H1518   1.084       .  S
C1512      C1513   1.409       .  A
C1512      H1519   1.083       .  S
C1513      C1514   1.406       .  A
C1514      H1520   1.085       .  S
C1521      C1522   1.408       .  A
C1521      C1526   1.411       .  A
C1522      C1523   1.408       .  A
C1522      H1531   1.083       .  S
C1523      C1524   1.407       .  A
C1523      H1532   1.083       .  S
C1524      C1530   1.418       .  A
C1524      C1525   1.414       .  A
C1525      C1527   1.402       .  A
C1525      C1526   1.409       .  A
C1526      H1533   1.084       .  S
C1527      C1528   1.397       .  A
C1527      H1534   1.084       .  S
C1528      C1529   1.403       .  A
C1528      H1535   1.084       .  S
C1529      C1530   1.411       .  A
C1530      H1536   1.084       .  S
C1537      C1538   1.404       .  A
C1537      C1542   1.406       .  A
C1538      C1539   1.396       .  A
C1538      H1547   1.083       .  S
C1539      C1540   1.401       .  A
C1539      H1548   1.085       .  S
C1540      C1546   1.404       .  A
C1540      C1541   1.415       .  A
C1541      C1543   1.403       .  A
C1541      C1542   1.408       .  A
C1542      H1549   1.086       .  S
C1543      C1544   1.400       .  A
C1543      H1550   1.085       .  S
C1544      C1545   1.406       .  A
C1544      H1551   1.082       .  S
C1545      C1546   1.404       .  A
C1546      H1552   1.086       .  S
C1553      C1554   1.402       .  A
C1553      C1558   1.400       .  A
C1554      C1555   1.394       .  A
C1554      H1563   1.084       .  S
C1555      C1556   1.401       .  A
C1555      H1564   1.083       .  S
C1556      C1562   1.398       .  A
C1556      C1557   1.416       .  A
C1557      C1559   1.401       .  A
C1557      C1558   1.399       .  A
C1558      H1565   1.084       .  S
C1559      C1560   1.394       .  A
C1559      H1566   1.083       .  S
C1560      C1561   1.405       .  A
C1560      H1567   1.084       .  S
C1561      C1562   1.403       .  A
C1562      H1568   1.083       .  S
C1569      C1570   1.409       .  A
C1569      C1574   1.405       .  A
C1570      C1571   1.397       .  A
C1570      H1579   1.084       .  S
C1571      C1572   1.399       .  A
C1571      H1580   1.084       .  S
C1572      C1578   1.414       .  A
C1572      C1573   1.419       .  A
C1573      C1575   1.401       .  A
C1573      C1574   1.417       .  A
C1574      H1581   1.085       .  S
C1575      C1576   1.400       .  A
C1575      H1582   1.084       .  S
C1576      C1577   1.407       .  A
C1576      H1583   1.084       .  S
C1577      C1578   1.404       .  A
C1578      H1584   1.085       .  S
C1585      C1586   1.406       .  A
C1585      C1590   1.407       .  A
C1586      C1587   1.401       .  A
C1586      H1595   1.083       .  S
C1587      C1588   1.403       .  A
C1587      H1596   1.085       .  S
C1588      C1594   1.415   1_545  A
C1588      C1589   1.416       .  A
C1589      C1591   1.402       .  A
C1589      C1590   1.415       .  A
C1590      H1597   1.085       .  S
C1591      C1592   1.401   1_545  A
C1591      H1598   1.084       .  S
C1592      C1593   1.410       .  A
C1592      H1599   1.083       .  S
C1593      C1594   1.410       .  A
C1594      H1600   1.085       .  S
C1601      C1602   1.406       .  A
C1601      C1606   1.403       .  A
C1602      C1603   1.400       .  A
C1602      H1611   1.083       .  S
C1603      C1604   1.402       .  A
C1603      H1612   1.085       .  S
C1604      C1610   1.413       .  A
C1604      C1605   1.418       .  A
C1605      C1607   1.399       .  A
C1605      C1606   1.410       .  A
C1606      H1613   1.086       .  S
C1607      C1608   1.396       .  A
C1607      H1614   1.085       .  S
C1608      C1609   1.408       .  A
C1608      H1615   1.083       .  S
C1609      C1610   1.406       .  A
C1610      H1616   1.085       .  S
C1617      C1618   1.409       .  A
C1617      C1622   1.411       .  A
C1618      C1619   1.400   1_455  A
C1618      H1627   1.083       .  S
C1619      C1620   1.401       .  A
C1619      H1628   1.084       .  S
C1620      C1626   1.414       .  A
C1620      C1621   1.416       .  A
C1621      C1623   1.405       .  A
C1621      C1622   1.418   1_655  A
C1622      H1629   1.084       .  S
C1623      C1624   1.404       .  A
C1623      H1630   1.084       .  S
C1624      C1625   1.405       .  A
C1624      H1631   1.083       .  S
C1625      C1626   1.407       .  A
C1626      H1632   1.085       .  S
C1633      C1634   1.406       .  A
C1633      C1638   1.403       .  A
C1634      C1635   1.398       .  A
C1634      H1643   1.083       .  S
C1635      C1636   1.402       .  A
C1635      H1644   1.085       .  S
C1636      C1642   1.407       .  A
C1636      C1637   1.417       .  A
C1637      C1639   1.401       .  A
C1637      C1638   1.407       .  A
C1638      H1645   1.085       .  S
C1639      C1640   1.397       .  A
C1639      H1646   1.085       .  S
C1640      C1641   1.404       .  A
C1640      H1647   1.083       .  S
C1641      C1642   1.404       .  A
C1642      H1648   1.086       .  S
C1649      C1650   1.406       .  A
C1649      C1654   1.412       .  A
C1650      C1651   1.397       .  A
C1650      H1659   1.082       .  S
C1651      C1652   1.401       .  A
C1651      H1660   1.084       .  S
C1652      C1658   1.407       .  A
C1652      C1653   1.414       .  A
C1653      C1655   1.407       .  A
C1653      C1654   1.417       .  A
C1654      H1661   1.084       .  S
C1655      C1656   1.407       .  A
C1655      H1662   1.083       .  S
C1656      C1657   1.405       .  A
C1656      H1663   1.083       .  S
C1657      C1658   1.407       .  A
C1658      H1664   1.085       .  S
C1665      C1666   1.404       .  A
C1665      C1670   1.408       .  A
C1666      C1667   1.401       .  A
C1666      H1675   1.082       .  S
C1667      C1668   1.405       .  A
C1667      H1676   1.084       .  S
C1668      C1674   1.408       .  A
C1668      C1669   1.413       .  A
C1669      C1671   1.402       .  A
C1669      C1670   1.404       .  A
C1670      H1677   1.086       .  S
C1671      C1672   1.398       .  A
C1671      H1678   1.085       .  S
C1672      C1673   1.406       .  A
C1672      H1679   1.083       .  S
C1673      C1674   1.409       .  A
C1674      H1680   1.085       .  S
C1681      C1682   1.404       .  A
C1681      C1686   1.406       .  A
C1682      C1683   1.406       .  A
C1682      H1691   1.083   1_455  S
C1683      C1684   1.408       .  A
C1683      H1692   1.084       .  S
C1684      C1690   1.411       .  A
C1684      C1685   1.414       .  A
C1685      C1687   1.399       .  A
C1685      C1686   1.398       .  A
C1686      H1693   1.086       .  S
C1687      C1688   1.391       .  A
C1687      H1694   1.084       .  S
C1688      C1689   1.404       .  A
C1688      H1695   1.084       .  S
C1689      C1690   1.409       .  A
C1690      H1696   1.084       .  S
C1697      C1698   1.404       .  A
C1697      C1702   1.404       .  A
C1698      C1699   1.401       .  A
C1698      H1707   1.083       .  S
C1699      C1700   1.404       .  A
C1699      H1708   1.084       .  S
C1700      C1706   1.410       .  A
C1700      C1701   1.416       .  A
C1701      C1703   1.401       .  A
C1701      C1702   1.409       .  A
C1702      H1709   1.085       .  S
C1703      C1704   1.398       .  A
C1703      H1710   1.084       .  S
C1704      C1705   1.406       .  A
C1704      H1711   1.083       .  S
C1705      C1706   1.407       .  A
C1706      H1712   1.085       .  S
C1713      C1714   1.404       .  A
C1713      C1718   1.404       .  A
C1714      C1715   1.398       .  A
C1714      H1723   1.083       .  S
C1715      C1716   1.403       .  A
C1715      H1724   1.085       .  S
C1716      C1722   1.405       .  A
C1716      C1717   1.415       .  A
C1717      C1719   1.402       .  A
C1717      C1718   1.404       .  A
C1718      H1725   1.086       .  S
C1719      C1720   1.397       .  A
C1719      H1726   1.085       .  S
C1720      C1721   1.405       .  A
C1720      H1727   1.083       .  S
C1721      C1722   1.405       .  A
C1722      H1728   1.086       .  S
C1729      C1730   1.409       .  A
C1729      C1734   1.403       .  A
C1730      C1731   1.395       .  A
C1730      H1739   1.084       .  S
C1731      C1732   1.398       .  A
C1731      H1740   1.085       .  S
C1732      C1738   1.410       .  A
C1732      C1733   1.420       .  A
C1733      C1735   1.400       .  A
C1733      C1734   1.414       .  A
C1734      H1741   1.085       .  S
C1735      C1736   1.398       .  A
C1735      H1742   1.085       .  S
C1736      C1737   1.406       .  A
C1736      H1743   1.082       .  S
C1737      C1738   1.401       .  A
C1738      H1744   1.086       .  S
C1745      C1746   1.399       .  A
C1745      C1750   1.407       .  A
C1746      C1747   1.396       .  A
C1746      H1755   1.082       .  S
C1747      C1748   1.405       .  A
C1747      H1756   1.085       .  S
C1748      C1754   1.393       .  A
C1748      C1749   1.411       .  A
C1749      C1751   1.406       .  A
C1749      C1750   1.395       .  A
C1750      H1757   1.086       .  S
C1751      C1752   1.399       .  A
C1751      H1758   1.085       .  S
C1752      C1753   1.400       .  A
C1752      H1759   1.082       .  S
C1753      C1754   1.406       .  A
C1754      H1760   1.086       .  S
C1761      C1762   1.404       .  A
C1761      C1766   1.402       .  A
C1762      C1763   1.402       .  A
C1762      H1771   1.083       .  S
C1763      C1764   1.404       .  A
C1763      H1772   1.085       .  S
C1764      C1770   1.414   1_545  A
C1764      C1765   1.417       .  A
C1765      C1767   1.400       .  A
C1765      C1766   1.409       .  A
C1766      H1773   1.086       .  S
C1767      C1768   1.397       .  A
C1767      H1774   1.085       .  S
C1768      C1769   1.408   1_545  A
C1768      H1775   1.083       .  S
C1769      C1770   1.409       .  A
C1770      H1776   1.085       .  S
C1777      C1778   1.406       .  A
C1777      C1782   1.408       .  A
C1778      C1779   1.395       .  A
C1778      H1787   1.083       .  S
C1779      C1780   1.400       .  A
C1779      H1788   1.085       .  S
C1780      C1786   1.402       .  A
C1780      C1781   1.414       .  A
C1781      C1783   1.405       .  A
C1781      C1782   1.409       .  A
C1782      H1789   1.085       .  S
C1783      C1784   1.402       .  A
C1783      H1790   1.084       .  S
C1784      C1785   1.404       .  A
C1784      H1791   1.083       .  S
C1785      C1786   1.404       .  A
C1786      H1792   1.086       .  S
C1793      C1794   1.408       .  A
C1793      C1798   1.401       .  A
C1794      C1795   1.394       .  A
C1794      H1803   1.084       .  S
C1795      C1796   1.399       .  A
C1795      H1804   1.083       .  S
C1796      C1802   1.403       .  A
C1796      C1797   1.417       .  A
C1797      C1799   1.399       .  A
C1797      C1798   1.402       .  A
C1798      H1805   1.084       .  S
C1799      C1800   1.393       .  A
C1799      H1806   1.083       .  S
C1800      C1801   1.407       .  A
C1800      H1807   1.084       .  S
C1801      C1802   1.402       .  A
C1802      H1808   1.084       .  S
C1809      C1810   1.404       .  A
C1809      C1814   1.402       .  A
C1810      C1811   1.395       .  A
C1810      H1819   1.084       .  S
C1811      C1812   1.401       .  A
C1811      H1820   1.082       .  S
C1812      C1818   1.402       .  A
C1812      C1813   1.416       .  A
C1813      C1815   1.401       .  A
C1813      C1814   1.403       .  A
C1814      H1821   1.084       .  S
C1815      C1816   1.396       .  A
C1815      H1822   1.082       .  S
C1816      C1817   1.406       .  A
C1816      H1823   1.084       .  S
C1817      C1818   1.403       .  A
C1818      H1824   1.083       .  S
C1825      C1826   1.401       .  A
C1825      C1830   1.407       .  A
C1826      C1827   1.396       .  A
C1826      H1835   1.082       .  S
C1827      C1828   1.403       .  A
C1827      H1836   1.085       .  S
C1828      C1834   1.396       .  A
C1828      C1829   1.412       .  A
C1829      C1831   1.405       .  A
C1829      C1830   1.397       .  A
C1830      H1837   1.086       .  S
C1831      C1832   1.398       .  A
C1831      H1838   1.085       .  S
C1832      C1833   1.401       .  A
C1832      H1839   1.083       .  S
C1833      C1834   1.404       .  A
C1834      H1840   1.086       .  S
C1841      C1842   1.404       .  A
C1841      C1846   1.409       .  A
C1842      C1843   1.402       .  A
C1842      H1851   1.083       .  S
C1843      C1844   1.405       .  A
C1843      H1852   1.084       .  S
C1844      C1850   1.410       .  A
C1844      C1845   1.414       .  A
C1845      C1847   1.404       .  A
C1845      C1846   1.409       .  A
C1846      H1853   1.085       .  S
C1847      C1848   1.401       .  A
C1847      H1854   1.084       .  S
C1848      C1849   1.404       .  A
C1848      H1855   1.083       .  S
C1849      C1850   1.409       .  A
C1850      H1856   1.085       .  S
C1857      C1858   1.408       .  A
C1857      C1862   1.406       .  A
C1858      C1859   1.394       .  A
C1858      H1867   1.084       .  S
C1859      C1860   1.399       .  A
C1859      H1868   1.084       .  S
C1860      C1866   1.404       .  A
C1860      C1861   1.416       .  A
C1861      C1863   1.402       .  A
C1861      C1862   1.407       .  A
C1862      H1869   1.085       .  S
C1863      C1864   1.398       .  A
C1863      H1870   1.084       .  S
C1864      C1865   1.407       .  A
C1864      H1871   1.083       .  S
C1865      C1866   1.402       .  A
C1866      H1872   1.085       .  S
C1873      C1874   1.407       .  A
C1873      C1878   1.411       .  A
C1874      C1875   1.400   1_565  A
C1874      H1883   1.083       .  S
C1875      C1876   1.401       .  A
C1875      H1884   1.084       .  S
C1876      C1882   1.412       .  A
C1876      C1877   1.416       .  A
C1877      C1879   1.405       .  A
C1877      C1878   1.416   1_545  A
C1878      H1885   1.084       .  S
C1879      C1880   1.403       .  A
C1879      H1886   1.084       .  S
C1880      C1881   1.405       .  A
C1880      H1887   1.083       .  S
C1881      C1882   1.405       .  A
C1882      H1888   1.085       .  S
C1889      C1890   1.400       .  A
C1889      C1894   1.406       .  A
C1890      C1891   1.402       .  A
C1890      H1899   1.083       .  S
C1891      C1892   1.408       .  A
C1891      H1900   1.082       .  S
C1892      C1898   1.399       .  A
C1892      C1893   1.411       .  A
C1893      C1895   1.405       .  A
C1893      C1894   1.392       .  A
C1894      H1901   1.084       .  S
C1895      C1896   1.395       .  A
C1895      H1902   1.083       .  S
C1896      C1897   1.397       .  A
C1896      H1903   1.084       .  S
C1897      C1898   1.405       .  A
C1898      H1904   1.084       .  S
C1905      C1906   1.404       .  A
C1905      C1910   1.409       .  A
C1906      C1907   1.400       .  A
C1906      H1915   1.083       .  S
C1907      C1908   1.404       .  A
C1907      H1916   1.084       .  S
C1908      C1914   1.407       .  A
C1908      C1909   1.413       .  A
C1909      C1911   1.405       .  A
C1909      C1910   1.409       .  A
C1910      H1917   1.084       .  S
C1911      C1912   1.402       .  A
C1911      H1918   1.084       .  S
C1912      C1913   1.405       .  A
C1912      H1919   1.083       .  S
C1913      C1914   1.410       .  A
C1914      H1920   1.085       .  S
C1921      C1922   1.409       .  A
C1921      C1926   1.409       .  A
C1922      C1923   1.397       .  A
C1922      H1931   1.083       .  S
C1923      C1924   1.400       .  A
C1923      H1932   1.085       .  S
C1924      C1930   1.408       .  A
C1924      C1925   1.416       .  A
C1925      C1927   1.404       .  A
C1925      C1926   1.413       .  A
C1926      H1933   1.085       .  S
C1927      C1928   1.402       .  A
C1927      H1934   1.084       .  S
C1928      C1929   1.404       .  A
C1928      H1935   1.083       .  S
C1929      C1930   1.404       .  A
C1930      H1936   1.086       .  S
C1937      C1938   1.407       .  A
C1937      C1942   1.411       .  A
C1938      C1939   1.401       .  A
C1938      H1947   1.083       .  S
C1939      C1940   1.402       .  A
C1939      H1948   1.083       .  S
C1940      C1946   1.411       .  A
C1940      C1941   1.415       .  A
C1941      C1943   1.405       .  A
C1941      C1942   1.413       .  A
C1942      H1949   1.084       .  S
C1943      C1944   1.402       .  A
C1943      H1950   1.083       .  S
C1944      C1945   1.403       .  A
C1944      H1951   1.084       .  S
C1945      C1946   1.405       .  A
C1946      H1952   1.084       .  S
C1953      C1954   1.403       .  A
C1953      C1958   1.403       .  A
C1954      C1955   1.395       .  A
C1954      H1963   1.083       .  S
C1955      C1956   1.402       .  A
C1955      H1964   1.085       .  S
C1956      C1962   1.399       .  A
C1956      C1957   1.415       .  A
C1957      C1959   1.403       .  A
C1957      C1958   1.401       .  A
C1958      H1965   1.086       .  S
C1959      C1960   1.397       .  A
C1959      H1966   1.085       .  S
C1960      C1961   1.403       .  A
C1960      H1967   1.083       .  S
C1961      C1962   1.402       .  A
C1962      H1968   1.086       .  S
C1969      C1970   1.405       .  A
C1969      C1974   1.405       .  A
C1970      C1971   1.395       .  A
C1970      H1979   1.084       .  S
C1971      C1972   1.400       .  A
C1971      H1980   1.083       .  S
C1972      C1978   1.404       .  A
C1972      C1973   1.416       .  A
C1973      C1975   1.402       .  A
C1973      C1974   1.406       .  A
C1974      H1981   1.083       .  S
C1975      C1976   1.397       .  A
C1975      H1982   1.082       .  S
C1976      C1977   1.404       .  A
C1976      H1983   1.084       .  S
C1977      C1978   1.402       .  A
C1978      H1984   1.084       .  S
C1985      C1986   1.406       .  A
C1985      C1990   1.409       .  A
C1986      C1987   1.401       .  A
C1986      H1995   1.083       .  S
C1987      C1988   1.404       .  A
C1987      H1996   1.084       .  S
C1988      C1994   1.407       .  A
C1988      C1989   1.413       .  A
C1989      C1991   1.404       .  A
C1989      C1990   1.407       .  A
C1990      H1997   1.085       .  S
C1991      C1992   1.400       .  A
C1991      H1998   1.084       .  S
C1992      C1993   1.403       .  A
C1992      H1999   1.083       .  S
C1993      C1994   1.410       .  A
C1994      H2000   1.085       .  S
C2001      C2002   1.407       .  A
C2001      C2006   1.403       .  A
C2002      C2003   1.399       .  A
C2002      H2011   1.084       .  S
C2003      C2004   1.401       .  A
C2003      H2012   1.085       .  S
C2004      C2010   1.414       .  A
C2004      C2005   1.419       .  A
C2005      C2007   1.400       .  A
C2005      C2006   1.413       .  A
C2006      H2013   1.086       .  S
C2007      C2008   1.397       .  A
C2007      H2014   1.085       .  S
C2008      C2009   1.406       .  A
C2008      H2015   1.084       .  S
C2009      C2010   1.404       .  A
C2010      H2016   1.085       .  S
C2017      C2018   1.405       .  A
C2017      C2022   1.406   1_554  A
C2018      C2019   1.405       .  A
C2018      H2027   1.083       .  S
C2019      C2020   1.406       .  A
C2019      H2028   1.084       .  S
C2020      C2026   1.416       .  A
C2020      C2021   1.415       .  A
C2021      C2023   1.402   1_554  A
C2021      C2022   1.411   1_554  A
C2022      H2029   1.085       .  S
C2023      C2024   1.399       .  A
C2023      H2030   1.084       .  S
C2024      C2025   1.406   1_556  A
C2024      H2031   1.084       .  S
C2025      C2026   1.411       .  A
C2026      H2032   1.084       .  S
C2033      C2034   1.404       .  A
C2033      C2038   1.404       .  A
C2034      C2035   1.398       .  A
C2034      H2043   1.083       .  S
C2035      C2036   1.402       .  A
C2035      H2044   1.085       .  S
C2036      C2042   1.406       .  A
C2036      C2037   1.416       .  A
C2037      C2039   1.402       .  A
C2037      C2038   1.407       .  A
C2038      H2045   1.086       .  S
C2039      C2040   1.398       .  A
C2039      H2046   1.085       .  S
C2040      C2041   1.405       .  A
C2040      H2047   1.083       .  S
C2041      C2042   1.405       .  A
C2042      H2048   1.086       .  S
C2049      C2050   1.406       .  A
C2049      C2054   1.405   1_556  A
C2050      C2051   1.401       .  A
C2050      H2059   1.083       .  S
C2051      C2052   1.403       .  A
C2051      H2060   1.084       .  S
C2052      C2058   1.414       .  A
C2052      C2053   1.417   1_556  A
C2053      C2055   1.400       .  A
C2053      C2054   1.409       .  A
C2054      H2061   1.085       .  S
C2055      C2056   1.396       .  A
C2055      H2062   1.084       .  S
C2056      C2057   1.407       .  A
C2056      H2063   1.083       .  S
C2057      C2058   1.405   1_554  A
C2058      H2064   1.085       .  S
C2065      C2066   1.401       .  A
C2065      C2070   1.404       .  A
C2066      C2067   1.399       .  A
C2066      H2075   1.083       .  S
C2067      C2068   1.406       .  A
C2067      H2076   1.085       .  S
C2068      C2074   1.398       .  A
C2068      C2069   1.411       .  A
C2069      C2071   1.403       .  A
C2069      C2070   1.393       .  A
C2070      H2077   1.086       .  S
C2071      C2072   1.395       .  A
C2071      H2078   1.084       .  S
C2072      C2073   1.400       .  A
C2072      H2079   1.083       .  S
C2073      C2074   1.408       .  A
C2074      H2080   1.086       .  S
C2081      C2082   1.408       .  A
C2081      C2086   1.411       .  A
C2082      C2083   1.400       .  A
C2082      H2091   1.083       .  S
C2083      C2084   1.402       .  A
C2083      H2092   1.084       .  S
C2084      C2090   1.414       .  A
C2084      C2085   1.416       .  A
C2085      C2087   1.405       .  A
C2085      C2086   1.419       .  A
C2086      H2093   1.084       .  S
C2087      C2088   1.405       .  A
C2087      H2094   1.084       .  S
C2088      C2089   1.409       .  A
C2088      H2095   1.083       .  S
C2089      C2090   1.410       .  A
C2090      H2096   1.084       .  S
C2097      C2098   1.408       .  A
C2097      C2102   1.403       .  A
C2098      C2099   1.400       .  A
C2098      H2107   1.083       .  S
C2099      C2100   1.403       .  A
C2099      H2108   1.085       .  S
C2100      C2106   1.411       .  A
C2100      C2101   1.416       .  A
C2101      C2103   1.398       .  A
C2101      C2102   1.405       .  A
C2102      H2109   1.086       .  S
C2103      C2104   1.393       .  A
C2103      H2110   1.085       .  S
C2104      C2105   1.408       .  A
C2104      H2111   1.083       .  S
C2105      C2106   1.406       .  A
C2106      H2112   1.085       .  S
C2113      C2114   1.405       .  A
C2113      C2118   1.413       .  A
C2114      C2115   1.404       .  A
C2114      H2123   1.083       .  S
C2115      C2116   1.405       .  A
C2115      H2124   1.084       .  S
C2116      C2122   1.418   1_645  A
C2116      C2117   1.415       .  A
C2117      C2119   1.406   1_545  A
C2117      C2118   1.420       .  A
C2118      H2125   1.084       .  S
C2119      C2120   1.405   1_655  A
C2119      H2126   1.083       .  S
C2120      C2121   1.408       .  A
C2120      H2127   1.084       .  S
C2121      C2122   1.411       .  A
C2122      H2128   1.084       .  S
C2129      C2130   1.404       .  A
C2129      C2134   1.400       .  A
C2130      C2131   1.393   1_655  A
C2130      H2139   1.084       .  S
C2131      C2132   1.399       .  A
C2131      H2140   1.083       .  S
C2132      C2138   1.399       .  A
C2132      C2133   1.417   1_455  A
C2133      C2135   1.400   1_655  A
C2133      C2134   1.400       .  A
C2134      H2141   1.084       .  S
C2135      C2136   1.393       .  A
C2135      H2142   1.083   1_455  S
C2136      C2137   1.405       .  A
C2136      H2143   1.084       .  S
C2137      C2138   1.400       .  A
C2138      H2144   1.084       .  S
C2145      C2146   1.401       .  A
C2145      C2150   1.401       .  A
C2146      C2147   1.395       .  A
C2146      H2155   1.083       .  S
C2147      C2148   1.402       .  A
C2147      H2156   1.085       .  S
C2148      C2154   1.394       .  A
C2148      C2149   1.413       .  A
C2149      C2151   1.401       .  A
C2149      C2150   1.392       .  A
C2150      H2157   1.086       .  S
C2151      C2152   1.392       .  A
C2151      H2158   1.084       .  S
C2152      C2153   1.401       .  A
C2152      H2159   1.083       .  S
C2153      C2154   1.402       .  A
C2154      H2160   1.086       .  S
C2161      C2162   1.403       .  A
C2161      C2166   1.400       .  A
C2162      C2163   1.394       .  A
C2162      H2171   1.084       .  S
C2163      C2164   1.401       .  A
C2163      H2172   1.083       .  S
C2164      C2170   1.398       .  A
C2164      C2165   1.416       .  A
C2165      C2167   1.400       .  A
C2165      C2166   1.397       .  A
C2166      H2173   1.085       .  S
C2167      C2168   1.393       .  A
C2167      H2174   1.084       .  S
C2168      C2169   1.404       .  A
C2168      H2175   1.084       .  S
C2169      C2170   1.401       .  A
C2170      H2176   1.084       .  S
C2177      C2178   1.400       .  A
C2177      C2182   1.404       .  A
C2178      C2179   1.398       .  A
C2178      H2187   1.083       .  S
C2179      C2180   1.405       .  A
C2179      H2188   1.084       .  S
C2180      C2186   1.397       .  A
C2180      C2181   1.412       .  A
C2181      C2183   1.405       .  A
C2181      C2182   1.395       .  A
C2182      H2189   1.085       .  S
C2183      C2184   1.397       .  A
C2183      H2190   1.084       .  S
C2184      C2185   1.398       .  A
C2184      H2191   1.083       .  S
C2185      C2186   1.404       .  A
C2186      H2192   1.085       .  S
C2193      C2194   1.404   1_554  A
C2193      C2198   1.407       .  A
C2194      C2195   1.403       .  A
C2194      H2203   1.083       .  S
C2195      C2196   1.405   1_556  A
C2195      H2204   1.084   1_545  S
C2196      C2202   1.415   1_545  A
C2196      C2197   1.415       .  A
C2197      C2199   1.402       .  A
C2197      C2198   1.412       .  A
C2198      H2205   1.085       .  S
C2199      C2200   1.400       .  A
C2199      H2206   1.084       .  S
C2200      C2201   1.408   1_545  A
C2200      H2207   1.083       .  S
C2201      C2202   1.411       .  A
C2202      H2208   1.085   1_554  S
C2209      C2210   1.408   1_655  A
C2209      C2214   1.406   1_654  A
C2210      C2211   1.399       .  A
C2210      H2219   1.083       .  S
C2211      C2212   1.401       .  A
C2211      H2220   1.085       .  S
C2212      C2218   1.415       .  A
C2212      C2213   1.418   1_554  A
C2213      C2215   1.401       .  A
C2213      C2214   1.416       .  A
C2214      H2221   1.085   1_455  S
C2215      C2216   1.401       .  A
C2215      H2222   1.085       .  S
C2216      C2217   1.408       .  A
C2216      H2223   1.082       .  S
C2217      C2218   1.407   1_556  A
C2218      H2224   1.085       .  S
C2225      C2226   1.405       .  A
C2225      C2230   1.406       .  A
C2226      C2227   1.398       .  A
C2226      H2235   1.083       .  S
C2227      C2228   1.403       .  A
C2227      H2236   1.085       .  S
C2228      C2234   1.404       .  A
C2228      C2229   1.413       .  A
C2229      C2231   1.403       .  A
C2229      C2230   1.404       .  A
C2230      H2237   1.086       .  S
C2231      C2232   1.399       .  A
C2231      H2238   1.085       .  S
C2232      C2233   1.405       .  A
C2232      H2239   1.083       .  S
C2233      C2234   1.408       .  A
C2234      H2240   1.085       .  S
