geometry optimzed in LAMMPS
_audit_creation_date              2020-12-01 
_audit_creation_method            'lammps2cif' 
_symmetry_space_group_name_H-M    'P1' 
_symmetry_Int_Tables_number       1 
_symmetry_cell_setting            triclinic 
loop_ 
_symmetry_equiv_pos_as_xyz 
  x,y,z 
_cell_length_a                    31.81495777 
_cell_length_b                    27.580628332216307 
_cell_length_c                    65.45081237679142 
_cell_angle_alpha                 90.00917366582826 
_cell_angle_beta                  89.98993492407898 
_cell_angle_gamma                 90.06318744598367 
loop_ 
_atom_site_label 
_atom_site_type_symbol 
_atom_site_fract_x 
_atom_site_fract_y 
_atom_site_fract_z 
_atom_site_charge 
O1          O  0.95284607  0.20393512  0.41505693    -0.85600
O2          O  0.92275595  0.26393917  0.44484176    -0.82600
C3          C  0.91109670  0.28048590  0.46181689     0.97900
O4          O  0.92090398  0.25870071  0.47826695    -0.82700
O5          O  0.88304950  0.16726241  0.47846890    -0.85300
C6          C  0.87627084  0.12342423  0.47402429     1.02400
O7          O  0.90176863  0.10101393  0.46262067    -0.78100
O8          O  0.90913955  0.14837755  0.42577886    -0.78300
C9          C  0.91962396  0.17928978  0.41259960     1.02300
O10         O  0.02954783  0.19573843  0.43843412    -0.85600
O11         O  0.00139752  0.26570371  0.46519541    -0.82700
C12         C  0.01253829  0.25255821  0.48289895     0.97900
O13         O  0.99856714  0.21338559  0.49019765    -0.82700
O14         O  0.95879167  0.12295058  0.49202216    -0.85300
C15         C  0.98021532  0.08988849  0.48339778     1.02400
O16         O  0.99013822  0.09331666  0.46482662    -0.78100
O17         O  0.99954008  0.13032941  0.42634522    -0.78300
C18         C  0.03231278  0.15543160  0.42952316     1.02300
Cr19       Cr  0.97540685  0.22864029  0.44194304     1.93700
Cr20       Cr  0.94158289  0.18998024  0.48278017     1.93200
Cr21       Cr  0.95038798  0.12273668  0.44552254     1.39100
O22         O  0.95586716  0.18037289  0.45693623    -1.23300
O23         O  0.78790394  0.21217716  0.33665058    -0.85600
O24         O  0.82034205  0.26918509  0.30625309    -0.82600
C25         C  0.83188091  0.28426639  0.28900413     0.97900
O26         O  0.82097846  0.26205244  0.27286173    -0.82700
O27         O  0.85577950  0.16936569  0.27400153    -0.85300
C28         C  0.86060956  0.12505155  0.27813844     1.02400
O29         O  0.83457170  0.10392843  0.28978427    -0.78100
O30         O  0.82884974  0.15334416  0.32639122    -0.78300
C31         C  0.81966850  0.18522876  0.33936356     1.02300
O32         O  0.71049290  0.20730647  0.31326036    -0.85600
O33         O  0.74165101  0.27365524  0.28578897    -0.82700
C34         C  0.72957533  0.25906194  0.26840032     0.97900
O35         O  0.74234317  0.21896212  0.26163378    -0.82700
O36         O  0.77893800  0.12790826  0.26061223    -0.85300
C37         C  0.75610360  0.09652619  0.26941452     1.02400
O38         O  0.74547439  0.10185956  0.28778785    -0.78100
O39         O  0.73743769  0.14092084  0.32589334    -0.78300
C40         C  0.70565587  0.16750684  0.32235381     1.02300
Cr41       Cr  0.76621432  0.23684688  0.30952953     1.93700
Cr42       Cr  0.79833529  0.19419333  0.26919254     1.93200
Cr43       Cr  0.78656646  0.12937821  0.30684991     1.39100
O44         O  0.78370780  0.18675741  0.29504933    -1.23300
O45         O  0.46136229  0.79979093  0.06344330    -0.85600
O46         O  0.49207450  0.73324260  0.03545065    -0.82600
C47         C  0.48090020  0.74861950  0.01799840     0.97900
O48         O  0.49371696  0.78924741  0.01181031    -0.82700
O49         O  0.53241168  0.88008508  0.01176552    -0.85300
C50         C  0.50917012  0.91047968  0.02097295     1.02400
O51         O  0.49874928  0.90393399  0.03925937    -0.78100
O52         O  0.48985118  0.86447695  0.07687174    -0.78300
C53         C  0.45732460  0.83978646  0.07256349     1.02300
O54         O  0.53850982  0.79170233  0.08726716    -0.85600
O55         O  0.57036106  0.73506046  0.05662537    -0.82700
C56         C  0.58323771  0.72164651  0.03933912     0.97900
O57         O  0.57179043  0.74369916  0.02322505    -0.82700
O58         O  0.60793249  0.83458490  0.02525440    -0.85300
C59         C  0.61382889  0.87845387  0.02972644     1.02400
O60         O  0.58799448  0.90016848  0.04125078    -0.78100
O61         O  0.58102964  0.84963855  0.07753621    -0.78300
C62         C  0.57093979  0.81762020  0.09031168     1.02300
Cr63       Cr  0.51662670  0.76856049  0.05980001     1.93700
Cr64       Cr  0.55016841  0.81224020  0.01988786     1.93200
Cr65       Cr  0.53939011  0.87534841  0.05807386     1.39100
O66         O  0.53544258  0.81870756  0.04578966    -1.23300
O67         O  0.78047204  0.79919788  0.19110612    -0.85600
O68         O  0.74790007  0.73188939  0.21856896    -0.82600
C69         C  0.75685901  0.74541752  0.23658660     0.97900
O70         O  0.74266460  0.78497203  0.24325963    -0.82700
O71         O  0.70642726  0.87644386  0.24289115    -0.85300
C72         C  0.72974651  0.90794678  0.23444625     1.02400
O73         O  0.74158817  0.90283793  0.21619030    -0.78100
O74         O  0.75212122  0.86413342  0.17787192    -0.78300
C75         C  0.78439488  0.83871058  0.18160373     1.02300
O76         O  0.70425676  0.79198066  0.16665522    -0.85600
O77         O  0.67106535  0.73446770  0.19632856    -0.82700
C78         C  0.65607004  0.72062858  0.21310954     0.97900
O79         O  0.66514412  0.74260512  0.22956910    -0.82700
O80         O  0.63067463  0.83499244  0.22772669    -0.85300
C81         C  0.62634529  0.87932640  0.22351659     1.02400
O82         O  0.65352476  0.90016275  0.21253369    -0.78100
O83         O  0.66154195  0.84984444  0.17622198    -0.78300
C84         C  0.67201026  0.81795736  0.16345227     1.02300
Cr85       Cr  0.72479661  0.76809775  0.19420731     1.93700
Cr86       Cr  0.68770806  0.81015044  0.23389930     1.93200
Cr87       Cr  0.70228399  0.87481118  0.19636479     1.39100
O88         O  0.70513530  0.81768100  0.20836332    -1.23300
O89         O  0.28272743  0.21122517  0.83976798    -0.85600
O90         O  0.31165922  0.26895589  0.80895565    -0.82600
C91         C  0.32181694  0.28531249  0.79172361     0.97900
O92         O  0.31097984  0.26288351  0.77557431    -0.82700
O93         O  0.34965813  0.17244933  0.77633816    -0.85300
C94         C  0.35722662  0.12902122  0.78111941     1.02400
O95         O  0.33177947  0.10595311  0.79244273    -0.78100
O96         O  0.32352426  0.15270169  0.82926961    -0.78300
C97         C  0.31442486  0.18406184  0.84248820     1.02300
O98         O  0.20431349  0.20206512  0.81679418    -0.85600
O99         O  0.23195434  0.26964955  0.78911369    -0.82700
C100        C  0.21986707  0.25503072  0.77171117     0.97900
O101        O  0.23347124  0.21535653  0.76474767    -0.82700
O102        O  0.27484169  0.12529112  0.76320960    -0.85300
C103        C  0.25286957  0.09337547  0.77226859     1.02400
O104        O  0.24219159  0.09918745  0.79053709    -0.78100
O105        O  0.23300377  0.13583566  0.82857582    -0.78300
C106        C  0.20047085  0.16093736  0.82492520     1.02300
Cr107      Cr  0.25884271  0.23424462  0.81269618     1.93700
Cr108      Cr  0.29100100  0.19348152  0.77191069     1.93200
Cr109      Cr  0.28245942  0.12775940  0.80953719     1.39100
O110        O  0.27754942  0.18515312  0.79796138    -1.23300
O111        O  0.43036568  0.23104628  0.92463950    -0.85600
O112        O  0.44594798  0.28550465  0.95920448    -0.82600
C113        C  0.41340942  0.28486640  0.97014924     0.97900
O114        O  0.40139884  0.24635897  0.97885708    -0.82700
O115        O  0.39312159  0.14747971  0.98499247    -0.85300
C116        C  0.37221694  0.12706754  0.97103715     1.02400
O117        O  0.38540466  0.12682389  0.95275728    -0.78100
O118        O  0.43717855  0.15331781  0.91975299    -0.78300
C119        C  0.42202140  0.19349644  0.91435904     1.02300
O120        O  0.51581461  0.19209325  0.92811823    -0.85600
O121        O  0.52525644  0.24289771  0.96441738    -0.82700
C122        C  0.51969710  0.25300944  0.98309300     0.97900
O123        O  0.48639810  0.24055091  0.99213946    -0.82700
O124        O  0.47990455  0.14008927  0.99471006    -0.85300
C125        C  0.47468784  0.09708503  0.98850891     1.02400
O126        O  0.45573734  0.08818463  0.97215054    -0.78100
O127        O  0.50814972  0.12094890  0.94247767    -0.78300
C128        C  0.53023138  0.15065397  0.93252179     1.02300
Cr129      Cr  0.47738863  0.23354938  0.94510243     1.93700
Cr130      Cr  0.44135290  0.19303911  0.98551225     1.93200
Cr131      Cr  0.44729163  0.12752450  0.94756555     1.39100
O132        O  0.45522082  0.18487946  0.95946462    -1.23300
O133        O  0.26559494  0.82099995  0.67769320    -0.85600
O134        O  0.27585178  0.76876552  0.71340101    -0.82600
C135        C  0.26941773  0.75580521  0.73165230     0.97900
O136        O  0.23483278  0.76439295  0.74025090    -0.82700
O137        O  0.22564963  0.86437179  0.74393149    -0.85300
C138        C  0.21899123  0.90755437  0.73828471     1.02400
O139        O  0.19893840  0.91682553  0.72221691    -0.78100
O140        O  0.25246532  0.89081087  0.69214524    -0.78300
C141        C  0.27732410  0.86315919  0.68276685     1.02300
O142        O  0.18305918  0.77571128  0.67275832    -0.85600
O143        O  0.19829408  0.72142605  0.70666219    -0.82700
C144        C  0.16390254  0.71999850  0.71620366     0.97900
O145        O  0.15084300  0.75646482  0.72604007    -0.82700
O146        O  0.13946747  0.85389572  0.73414035    -0.85300
C147        C  0.11737969  0.87325840  0.72041877     1.02400
O148        O  0.13019391  0.87470005  0.70208304    -0.78100
O149        O  0.18287307  0.85435897  0.66850479    -0.78300
C150        C  0.17250437  0.81246726  0.66258373     1.02300
Cr151      Cr  0.22859147  0.77581891  0.69366225     1.93700
Cr152      Cr  0.18887679  0.81058946  0.73398203     1.93200
Cr153      Cr  0.19200953  0.87907981  0.69688909     1.39100
O154        O  0.20301011  0.82170694  0.70816752    -1.23300
O155        O  0.95384157  0.79416754  0.56627464    -0.85600
O156        O  0.98236705  0.72627833  0.53877681    -0.82600
C157        C  0.97034491  0.74054474  0.52131481     0.97900
O158        O  0.98388276  0.78004479  0.51420583    -0.82700
O159        O  0.02322094  0.87006614  0.51217645    -0.85300
C160        C  0.00086252  0.90230844  0.52073770     1.02400
O161        O  0.99018319  0.89781163  0.53915522    -0.78100
O162        O  0.98226914  0.86086433  0.57781289    -0.78300
C163        C  0.94990911  0.83506393  0.57460641     1.02300
O164        O  0.03270863  0.78767863  0.58897065    -0.85600
O165        O  0.06220098  0.72944580  0.55866901    -0.82700
C166        C  0.07251822  0.71284304  0.54152262     0.97900
O167        O  0.06176604  0.73463448  0.52526270    -0.82700
O168        O  0.09886489  0.82586327  0.52577895    -0.85300
C169        C  0.10497065  0.87001341  0.52975754     1.02400
O170        O  0.07925115  0.89265477  0.54103208    -0.78100
O171        O  0.07296688  0.84630674  0.57804861    -0.78300
C172        C  0.06498229  0.81428013  0.59118587     1.02300
Cr173      Cr  0.00885520  0.76306991  0.56218026     1.93700
Cr174      Cr  0.04074212  0.80316460  0.52128411     1.93200
Cr175      Cr  0.03094492  0.87003470  0.55842133     1.39100
O176        O  0.02677051  0.81213340  0.54717672    -1.23300
O177        O  0.28417464  0.95257341  0.06322823    -0.85600
O178        O  0.25404990  0.01793289  0.03455073    -0.82600
C179        C  0.26442007  0.00234279  0.01699698     0.97900
O180        O  0.25154609  0.96150555  0.01107249    -0.82700
O181        O  0.21169143  0.87095722  0.01178674    -0.85300
C182        C  0.23443580  0.84030894  0.02116426     1.02400
O183        O  0.24644713  0.84890501  0.03901336    -0.78100
O184        O  0.25535151  0.88800665  0.07657171    -0.78300
C185        C  0.28793529  0.91254859  0.07234784     1.02300
O186        O  0.20616701  0.96250248  0.08662342    -0.85600
O187        O  0.17576689  0.01829586  0.05564619    -0.82700
C188        C  0.16317083  0.03168536  0.03832206     0.97900
O189        O  0.17422469  0.00888897  0.02231739    -0.82700
O190        O  0.13692708  0.91860043  0.02525746    -0.85300
C191        C  0.13025825  0.87510448  0.03012171     1.02400
O192        O  0.15664165  0.85291803  0.04122338    -0.78100
O193        O  0.16519008  0.90226165  0.07744863    -0.78300
C194        C  0.17517351  0.93456775  0.09005754     1.02300
Cr195      Cr  0.22902150  0.98417396  0.05914845     1.93700
Cr196      Cr  0.19495951  0.93963899  0.01948885     1.93200
Cr197      Cr  0.20599005  0.87722875  0.05780038     1.39100
O198        O  0.20982302  0.93380619  0.04542645    -1.23300
O199        O  0.95751606  0.94852683  0.18558958    -0.85600
O200        O  0.98506961  0.01560707  0.21366544    -0.82600
C201        C  0.97270350  0.00117913  0.23107456     0.97900
O202        O  0.98625230  0.96166952  0.23814405    -0.82700
O203        O  0.02464599  0.87085373  0.23951828    -0.85300
C204        C  0.00169972  0.84002962  0.23039462     1.02400
O205        O  0.99130861  0.84636100  0.21211850    -0.78100
O206        O  0.98587031  0.88240457  0.17362398    -0.78300
C207        C  0.95354584  0.90799808  0.17694354     1.02300
O208        O  0.03717414  0.95564389  0.16363350    -0.85600
O209        O  0.06544563  0.01387978  0.19433790    -0.82700
C210        C  0.07679342  0.02855564  0.21167723     0.97900
O211        O  0.06497300  0.00640923  0.22769165    -0.82700
O212        O  0.10118870  0.91469276  0.22675298    -0.85300
C213        C  0.10728754  0.87067083  0.22242963     1.02400
O214        O  0.08117198  0.84840845  0.21119482    -0.78100
O215        O  0.07631173  0.89560448  0.17428978    -0.78300
C216        C  0.06872288  0.92800214  0.16128087     1.02300
Cr217      Cr  0.01235419  0.97972833  0.19025623     1.93700
Cr218      Cr  0.04309162  0.93800274  0.23108214     1.93200
Cr219      Cr  0.03355091  0.87251310  0.19349851     1.39100
O220        O  0.02987153  0.93021100  0.20501476    -1.23300
O221        O  0.93105958  0.52760084  0.33074885    -0.85600
O222        O  0.94690399  0.47053290  0.29755708    -0.82600
C223        C  0.91424512  0.46948941  0.28667930     0.97900
O224        O  0.90319609  0.50568834  0.27616057    -0.82700
O225        O  0.89404525  0.60331720  0.26773445    -0.85300
C226        C  0.87139771  0.62365499  0.28104907     1.02400
O227        O  0.88340902  0.62576445  0.29950068    -0.78100
O228        O  0.93375127  0.60621422  0.33378366    -0.78300
C229        C  0.92136281  0.56571973  0.34027367     1.02300
O230        O  0.01502499  0.56863848  0.32663873    -0.85600
O231        O  0.02657019  0.51292325  0.29172704    -0.82700
C232        C  0.02158423  0.50024676  0.27330941     0.97900
O233        O  0.98845207  0.51094836  0.26379796    -0.82700
O234        O  0.98137711  0.61086933  0.25927893    -0.85300
C235        C  0.97480467  0.65430432  0.26448149     1.02400
O236        O  0.95416976  0.66464485  0.28020264    -0.78100
O237        O  0.00528845  0.63844104  0.31138301    -0.78300
C238        C  0.02804701  0.61042150  0.32180036     1.02300
Cr239      Cr  0.97797322  0.52409902  0.31049150     1.93700
Cr240      Cr  0.94285852  0.55860168  0.26892131     1.93200
Cr241      Cr  0.94498761  0.62852071  0.30554582     1.39100
O242        O  0.95520874  0.57019766  0.29496913    -1.23300
O243        O  0.78333665  0.53877049  0.41469220    -0.85600
O244        O  0.81469138  0.48159816  0.44502000    -0.82600
C245        C  0.82618021  0.46595490  0.46219405     0.97900
O246        O  0.81452249  0.48734275  0.47840064    -0.82700
O247        O  0.84992650  0.57975199  0.47756384    -0.85300
C248        C  0.85518422  0.62395275  0.47324643     1.02400
O249        O  0.82861034  0.64557812  0.46211886    -0.78100
O250        O  0.82170260  0.59963973  0.42514856    -0.78300
C251        C  0.81408012  0.56740140  0.41206870     1.02300
O252        O  0.70481844  0.54350820  0.43765714    -0.85600
O253        O  0.73513274  0.47699894  0.46505929    -0.82700
C254        C  0.72256720  0.49104463  0.48244318     0.97900
O255        O  0.73579064  0.53062867  0.48968906    -0.82700
O256        O  0.77392489  0.62197664  0.49151160    -0.85300
C257        C  0.75120244  0.65392637  0.48300899     1.02400
O258        O  0.73962574  0.64854203  0.46477729    -0.78100
O259        O  0.73106986  0.61146073  0.42620249    -0.78300
C260        C  0.69958875  0.58424770  0.42938856     1.02300
Cr261      Cr  0.76058410  0.51402094  0.44160818     1.93700
Cr262      Cr  0.79222680  0.55537054  0.48234120     1.93200
Cr263      Cr  0.78013889  0.62182328  0.44519166     1.39100
O264        O  0.77766153  0.56377836  0.45646620    -1.23300
O265        O  0.45816594  0.96203963  0.69093235    -0.85600
O266        O  0.49028260  0.02757884  0.71805233    -0.82600
C267        C  0.47693309  0.01336048  0.73529340     0.97900
O268        O  0.48939897  0.97335357  0.74241138    -0.82700
O269        O  0.52562514  0.88095417  0.74384310    -0.85300
C270        C  0.50219906  0.84995919  0.73511071     1.02400
O271        O  0.49081083  0.85625203  0.71694321    -0.78100
O272        O  0.48236018  0.89374137  0.67885374    -0.78300
C273        C  0.45154659  0.92152851  0.68270061     1.02300
O274        O  0.53560269  0.96412718  0.66725025    -0.85600
O275        O  0.56941306  0.02091855  0.69761026    -0.82700
C276        C  0.58106338  0.03608175  0.71484785     0.97900
O277        O  0.56892755  0.01490227  0.73105223    -0.82700
O278        O  0.60252626  0.92150138  0.73008141    -0.85300
C279        C  0.60715496  0.87735471  0.72551306     1.02400
O280        O  0.58014967  0.85643372  0.71432238    -0.78100
O281        O  0.57438442  0.90347687  0.67748073    -0.78300
C282        C  0.56644391  0.93574634  0.66449556     1.02300
Cr283      Cr  0.51447739  0.98993223  0.69439541     1.93700
Cr284      Cr  0.54534469  0.94729716  0.73493912     1.93200
Cr285      Cr  0.53200107  0.88184969  0.69751367     1.39100
O286        O  0.53073165  0.93965038  0.70904890    -1.23300
O287        O  0.77817616  0.94880924  0.56552144    -0.85600
O288        O  0.74965538  0.01777402  0.53816464    -0.82600
C289        C  0.76148010  0.00336371  0.52070914     0.97900
O290        O  0.74772756  0.96391773  0.51369130    -0.82700
O291        O  0.70884564  0.87402696  0.51188607    -0.85300
C292        C  0.73063879  0.84151921  0.52059466     1.02400
O293        O  0.74012102  0.84529853  0.53921099    -0.78100
O294        O  0.74842596  0.88331866  0.57760229    -0.78300
C295        C  0.78126907  0.90810079  0.57413258     1.02300
O296        O  0.70041631  0.95661341  0.58858419    -0.85600
O297        O  0.67039944  0.01587053  0.55820310    -0.82700
C298        C  0.65900432  0.03142846  0.54096746     0.97900
O299        O  0.66956191  0.00914448  0.52478236    -0.82700
O300        O  0.63265758  0.91771916  0.52504177    -0.85300
C301        C  0.62653215  0.87361081  0.52910858     1.02400
O302        O  0.65157609  0.85160775  0.54090812    -0.78100
O303        O  0.65774274  0.89972186  0.57797167    -0.78300
C304        C  0.66774438  0.93093249  0.59115170     1.02300
Cr305      Cr  0.72346031  0.98104579  0.56161272     1.93700
Cr306      Cr  0.69086849  0.94073510  0.52082955     1.93200
Cr307      Cr  0.69961617  0.87446706  0.55830615     1.39100
O308        O  0.70462762  0.93204188  0.54677166    -1.23300
O309        O  0.45115364  0.54248566  0.83619787    -0.85600
O310        O  0.41945684  0.48567548  0.80600139    -0.82600
C311        C  0.40641385  0.47095164  0.78896578     0.97900
O312        O  0.41667278  0.49308336  0.77267664    -0.82700
O313        O  0.38220256  0.58596560  0.77425429    -0.85300
C314        C  0.37820044  0.63047048  0.77817568     1.02400
O315        O  0.40455224  0.65145026  0.78965864    -0.78100
O316        O  0.41138074  0.60283894  0.82643635    -0.78300
C317        C  0.42012634  0.57052895  0.83935202     1.02300
O318        O  0.52892706  0.54896991  0.81256079    -0.85600
O319        O  0.49783544  0.48240372  0.78465559    -0.82700
C320        C  0.50860320  0.49731109  0.76705086     0.97900
O321        O  0.49506925  0.53723620  0.76057066    -0.82700
O322        O  0.45841305  0.62786318  0.76007285    -0.85300
C323        C  0.48213569  0.65871919  0.76870613     1.02400
O324        O  0.49345521  0.65280243  0.78694832    -0.78100
O325        O  0.50165361  0.61491637  0.82537345    -0.78300
C326        C  0.53347806  0.58862598  0.82184289     1.02300
Cr327      Cr  0.47330678  0.51861351  0.80887642     1.93700
Cr328      Cr  0.43935003  0.56129498  0.76884221     1.93200
Cr329      Cr  0.45274424  0.62609151  0.80642438     1.39100
O330        O  0.45499974  0.56862690  0.79462351    -1.23300
O331        O  0.30991396  0.52731669  0.92292702    -0.85600
O332        O  0.29681749  0.46905597  0.95664533    -0.82600
C333        C  0.32918377  0.46844836  0.96781672     0.97900
O334        O  0.34146391  0.50619423  0.97701445    -0.82700
O335        O  0.34945634  0.60409480  0.98566872    -0.85300
C336        C  0.37069047  0.62548593  0.97211715     1.02400
O337        O  0.35792927  0.62692096  0.95379455    -0.78100
O338        O  0.30648606  0.60606917  0.92006502    -0.78300
C339        C  0.31858179  0.56569301  0.91329017     1.02300
O340        O  0.22525111  0.56683501  0.92839410    -0.85600
O341        O  0.21712587  0.51115458  0.96343501    -0.82700
C342        C  0.22341677  0.49859545  0.98176155     0.97900
O343        O  0.25726350  0.50925084  0.99064760    -0.82700
O344        O  0.26240614  0.60912004  0.99517128    -0.85300
C345        C  0.26686455  0.65273885  0.98968206     1.02400
O346        O  0.28746073  0.66377079  0.97401789    -0.78100
O347        O  0.23554397  0.63672857  0.94345682    -0.78300
C348        C  0.21224715  0.60862394  0.93335455     1.02300
Cr349      Cr  0.26433536  0.52275717  0.94393694     1.93700
Cr350      Cr  0.30152477  0.55806853  0.98494644     1.93200
Cr351      Cr  0.29617373  0.62801389  0.94849875     1.39100
O352        O  0.28749094  0.56938029  0.95910853    -1.23300
O353        O  0.78405445  0.45344027  0.06419056    -0.85600
O354        O  0.75527318  0.52137100  0.03710646    -0.82600
C355        C  0.76716475  0.50646976  0.01975007     0.97900
O356        O  0.75336053  0.46695527  0.01283103    -0.82700
O357        O  0.71326077  0.37766006  0.01104676    -0.85300
C358        C  0.73506285  0.34525125  0.01976293     1.02400
O359        O  0.74576159  0.35001314  0.03814181    -0.78100
O360        O  0.75594962  0.38719390  0.07634549    -0.78300
C361        C  0.78827523  0.41292310  0.07273964     1.02300
O362        O  0.70670719  0.46103977  0.08782203    -0.85600
O363        O  0.67647267  0.52059392  0.05744451    -0.82700
C364        C  0.66591839  0.53637252  0.04012452     0.97900
O365        O  0.67574379  0.51333679  0.02400398    -0.82700
O366        O  0.63797618  0.42183927  0.02430489    -0.85300
C367        C  0.63191995  0.37780059  0.02865518     1.02400
O368        O  0.65694230  0.35596229  0.04055584    -0.78100
O369        O  0.66464812  0.40322950  0.07750294    -0.78300
C370        C  0.67446047  0.43471701  0.09054723     1.02300
Cr371      Cr  0.72931464  0.48529022  0.06068850     1.93700
Cr372      Cr  0.69626292  0.44459902  0.02002945     1.93200
Cr373      Cr  0.70591388  0.37856338  0.05753768     1.39100
O374        O  0.71019271  0.43615655  0.04599057    -1.23300
O375        O  0.45830494  0.44767940  0.18836321    -0.85600
O376        O  0.48542185  0.51643243  0.21551543    -0.82600
C377        C  0.47406505  0.50168006  0.23303974     0.97900
O378        O  0.48929932  0.46310283  0.24021225    -0.82700
O379        O  0.53167328  0.37537681  0.24205993    -0.85300
C380        C  0.50928494  0.34263030  0.23397056     1.02400
O381        O  0.49804730  0.34595031  0.21558604    -0.78100
O382        O  0.48691504  0.38106313  0.17692380    -0.78300
C383        C  0.45446381  0.40654236  0.18027518     1.02300
O384        O  0.53592006  0.45666551  0.16492943    -0.85600
O385        O  0.56472637  0.51726586  0.19503611    -0.82700
C386        C  0.57488191  0.53405311  0.21222311     0.97900
O387        O  0.56517942  0.51145864  0.22840993    -0.82700
O388        O  0.60545673  0.42173943  0.22755925    -0.85300
C389        C  0.61278177  0.37801251  0.22312617     1.02400
O390        O  0.58677485  0.35433169  0.21239955    -0.78100
O391        O  0.57767693  0.39890141  0.17536121    -0.78300
C392        C  0.56839569  0.43063929  0.16233847     1.02300
Cr393      Cr  0.51241389  0.48081991  0.19191924     1.93700
Cr394      Cr  0.54673558  0.44232389  0.23258086     1.93200
Cr395      Cr  0.53704655  0.37451800  0.19566914     1.39100
O396        O  0.53213187  0.43253858  0.20680126    -1.23300
O397        O  0.28263460  0.03914823  0.41604869    -0.85600
O398        O  0.31341956  0.98161359  0.44618267    -0.82600
C399        C  0.32538054  0.96643343  0.46329659     0.97900
O400        O  0.31282636  0.98678165  0.47959523    -0.82700
O401        O  0.34718076  0.07947436  0.47944870    -0.85300
C402        C  0.35222129  0.12377356  0.47535406     1.02400
O403        O  0.32581206  0.14535242  0.46412790    -0.78100
O404        O  0.32234435  0.09811353  0.42729180    -0.78300
C405        C  0.31462480  0.06625803  0.41407770     1.02300
O406        O  0.20387517  0.04241055  0.43847624    -0.85600
O407        O  0.23334996  0.97547371  0.46596699    -0.82700
C408        C  0.22021041  0.98989832  0.48323142     0.97900
O409        O  0.23326700  0.02945062  0.49039723    -0.82700
O410        O  0.26962069  0.12005998  0.49256027    -0.85300
C411        C  0.24673944  0.15171822  0.48396490     1.02400
O412        O  0.23687143  0.14736055  0.46541959    -0.78100
O413        O  0.23113643  0.10960145  0.42672418    -0.78300
C414        C  0.19940185  0.08256972  0.42967400     1.02300
Cr415      Cr  0.25931428  0.01325138  0.44268243     1.93700
Cr416      Cr  0.28957114  0.05432253  0.48360245     1.93200
Cr417      Cr  0.27888821  0.12077634  0.44646701     1.39100
O418        O  0.27581179  0.06285299  0.45772494    -1.23300
O419        O  0.45679116  0.04390794  0.34136921    -0.85600
O420        O  0.42697818  0.98276431  0.31152211    -0.82600
C421        C  0.41551655  0.96658339  0.29440951     0.97900
O422        O  0.42430656  0.98969712  0.27816329    -0.82700
O423        O  0.38549927  0.08064019  0.27888194    -0.85300
C424        C  0.37920901  0.12474997  0.28303551     1.02400
O425        O  0.40522921  0.14735291  0.29412412    -0.78100
O426        O  0.41389907  0.10076711  0.33096558    -0.78300
C427        C  0.42397764  0.06928419  0.34394099     1.02300
O428        O  0.53368615  0.05295259  0.31749497    -0.85600
O429        O  0.50520421  0.98364742  0.29059570    -0.82700
C430        C  0.51546142  0.99786615  0.27287806     0.97900
O431        O  0.50080514  0.03693901  0.26594598    -0.82700
O432        O  0.46019407  0.12570722  0.26457564    -0.85300
C433        C  0.48241654  0.15842771  0.27287276     1.02400
O434        O  0.49370617  0.15462834  0.29122249    -0.78100
O435        O  0.50450156  0.11858667  0.32963300    -0.78300
C436        C  0.53717124  0.09382064  0.32587737     1.02300
Cr437      Cr  0.47937034  0.01955981  0.31429091     1.93700
Cr438      Cr  0.44393281  0.05873305  0.27386021     1.93200
Cr439      Cr  0.45451896  0.12584799  0.31090328     1.39100
O440        O  0.45915462  0.06799473  0.29957597    -1.23300
O441        O  0.95703882  0.46301858  0.69068396    -0.85600
O442        O  0.98916661  0.52651540  0.71873763    -0.82600
C443        C  0.97639464  0.51073719  0.73585459     0.97900
O444        O  0.98902266  0.47022987  0.74226100    -0.82700
O445        O  0.02493243  0.37857932  0.74223654    -0.85300
C446        C  0.00117495  0.34850727  0.73318407     1.02400
O447        O  0.98980051  0.35596316  0.71509729    -0.78100
O448        O  0.98179453  0.39610853  0.67747450    -0.78300
C449        C  0.95088481  0.42356901  0.68154153     1.02300
O450        O  0.03425098  0.46714438  0.66701928    -0.85600
O451        O  0.06799825  0.52165725  0.69792297    -0.82700
C452        C  0.07929149  0.53582172  0.71534556     0.97900
O453        O  0.06798346  0.51305081  0.73128030    -0.82700
O454        O  0.10192879  0.41966795  0.72892642    -0.85300
C455        C  0.10612234  0.37553745  0.72416173     1.02400
O456        O  0.07911347  0.35558146  0.71267551    -0.78100
O457        O  0.07350712  0.40607099  0.67647929    -0.78300
C458        C  0.06529249  0.43926183  0.66395111     1.02300
Cr459      Cr  0.01321150  0.49083989  0.69447350     1.93700
Cr460      Cr  0.04478690  0.44517943  0.73428012     1.93200
Cr461      Cr  0.03115805  0.38269946  0.69608625     1.39100
O462        O  0.02982965  0.43954900  0.70837832    -1.23300
O463        O  0.27814643  0.44898930  0.56579023    -0.85600
O464        O  0.25020241  0.51657013  0.53800554    -0.82600
C465        C  0.26243970  0.50157394  0.52072232     0.97900
O466        O  0.24875059  0.46181142  0.51390498    -0.82700
O467        O  0.20820552  0.37197777  0.51281238    -0.85300
C468        C  0.22849546  0.33891584  0.52195422     1.02400
O469        O  0.23840849  0.34365405  0.54047373    -0.78100
O470        O  0.24833323  0.38395500  0.57833519    -0.78300
C471        C  0.28117350  0.40870739  0.57472316     1.02300
O472        O  0.20092010  0.45862076  0.58881634    -0.85600
O473        O  0.17097837  0.51594482  0.55790883    -0.82700
C474        C  0.15937992  0.53019640  0.54052111     0.97900
O475        O  0.17082790  0.50802134  0.52447684    -0.82700
O476        O  0.13265215  0.41717925  0.52525283    -0.85300
C477        C  0.12539434  0.37383125  0.53039903     1.02400
O478        O  0.15021703  0.35230852  0.54242854    -0.78100
O479        O  0.15750572  0.40226164  0.57864014    -0.78300
C480        C  0.16768857  0.43410617  0.59146223     1.02300
Cr481      Cr  0.22382679  0.48126956  0.56163616     1.93700
Cr482      Cr  0.19139255  0.43935000  0.52110405     1.93200
Cr483      Cr  0.19890486  0.37500350  0.55932395     1.39100
O484        O  0.20476579  0.43172532  0.54717891    -1.23300
O485        O  0.94739105  0.04477750  0.83400166    -0.85600
O486        O  0.91663339  0.98639279  0.80413947    -0.82600
C487        C  0.90342511  0.97175161  0.78712369     0.97900
O488        O  0.91431555  0.99296877  0.77073417    -0.82700
O489        O  0.88051101  0.08611519  0.77170374    -0.85300
C490        C  0.87712123  0.13084545  0.77524453     1.02400
O491        O  0.90385849  0.15203930  0.78640501    -0.78100
O492        O  0.90909660  0.10604711  0.82356128    -0.78300
C493        C  0.91736319  0.07449898  0.83683062     1.02300
O494        O  0.02663373  0.04970765  0.81099751    -0.85600
O495        O  0.99551774  0.98242155  0.78324759    -0.82700
C496        C  0.00608571  0.99608535  0.76542521     0.97900
O497        O  0.99290625  0.03576312  0.75855478    -0.82700
O498        O  0.95716421  0.12654797  0.75735169    -0.85300
C499        C  0.98140537  0.15702435  0.76585018     1.02400
O500        O  0.99275784  0.15113469  0.78407500    -0.78100
O501        O  0.99905961  0.11613728  0.82304808    -0.78300
C502        C  0.03103405  0.09001694  0.81983735     1.02300
Cr503      Cr  0.97060285  0.01946071  0.80710446     1.93700
Cr504      Cr  0.93745211  0.06066742  0.76655303     1.93200
Cr505      Cr  0.95117156  0.12693806  0.80358946     1.39100
O506        O  0.95283806  0.06886515  0.79235534    -1.23300
O507        O  0.78650297  0.04519661  0.91329617    -0.85600
O508        O  0.81736335  0.98622541  0.94314902    -0.82600
C509        C  0.82737943  0.96928895  0.96028743     0.97900
O510        O  0.81744258  0.99168561  0.97652750    -0.82700
O511        O  0.85395871  0.08380762  0.97573312    -0.85300
C512        C  0.85929517  0.12830256  0.97208565     1.02400
O513        O  0.83276804  0.15087904  0.96114069    -0.78100
O514        O  0.82408041  0.10758431  0.92325686    -0.78300
C515        C  0.81621347  0.07507795  0.91030763     1.02300
O516        O  0.70840869  0.04987874  0.93642803    -0.85600
O517        O  0.73793468  0.98317620  0.96354856    -0.82700
C518        C  0.72594220  0.99721941  0.98104884     0.97900
O519        O  0.73983000  0.03641365  0.98829282    -0.82700
O520        O  0.77862156  0.12638433  0.99041588    -0.85300
C521        C  0.75478337  0.15782700  0.98236163     1.02400
O522        O  0.74308438  0.15303635  0.96416534    -0.78100
O523        O  0.73333487  0.11897492  0.92548101    -0.78300
C524        C  0.70240385  0.09079658  0.92852263     1.02300
Cr525      Cr  0.76376498  0.01998548  0.94007000     1.93700
Cr526      Cr  0.79630192  0.06010701  0.98076580     1.93200
Cr527      Cr  0.78338679  0.12806121  0.94414362     1.39100
O528        O  0.78144290  0.06934715  0.95497494    -1.23300
O529        O  0.95260263  0.71102228  0.91547112    -0.85600
O530        O  0.91909278  0.76684413  0.94551887    -0.82600
C531        C  0.90765176  0.78220612  0.96271662     0.97900
O532        O  0.91980244  0.76107733  0.97886981    -0.82700
O533        O  0.88721831  0.66730141  0.97696714    -0.85300
C534        C  0.88372227  0.62277155  0.97283839     1.02400
O535        O  0.91207093  0.60172087  0.96253114    -0.78100
O536        O  0.91868774  0.64602344  0.92543779    -0.78300
C537        C  0.92407519  0.67947969  0.91269346     1.02300
O538        O  0.03159408  0.71087510  0.93846608    -0.85600
O539        O  0.99868773  0.77471789  0.96612211    -0.82700
C540        C  0.01130289  0.76048845  0.98352517     0.97900
O541        O  0.99884625  0.72038909  0.99054336    -0.82700
O542        O  0.96357698  0.62791734  0.99208873    -0.85300
C543        C  0.98853862  0.59768413  0.98396277     1.02400
O544        O  0.00150078  0.60475697  0.96608437    -0.78100
O545        O  0.00973781  0.64061815  0.92736055    -0.78300
C546        C  0.03949210  0.67025663  0.93061019     1.02300
Cr547      Cr  0.97456117  0.73703684  0.94232333     1.93700
Cr548      Cr  0.94365576  0.69378060  0.98271274     1.93200
Cr549      Cr  0.96043163  0.62775177  0.94598014     1.39100
O550        O  0.95947574  0.68621903  0.95700457    -1.23300
O551        O  0.78517032  0.71109840  0.83928143    -0.85600
O552        O  0.81289440  0.76994665  0.80829710    -0.82600
C553        C  0.82246812  0.78518006  0.79075716     0.97900
O554        O  0.81174090  0.76154584  0.77495447    -0.82700
O555        O  0.84972708  0.67087544  0.77650261    -0.85300
C556        C  0.85650598  0.62711565  0.78099272     1.02400
O557        O  0.83029364  0.60421724  0.79196573    -0.78100
O558        O  0.82349996  0.64970871  0.82898002    -0.78300
C559        C  0.81539208  0.68172654  0.84204822     1.02300
O560        O  0.70539866  0.70304153  0.81727513    -0.85600
O561        O  0.73271761  0.76955332  0.78900961    -0.82700
C562        C  0.72055229  0.75457553  0.77165770     0.97900
O563        O  0.73411982  0.71490363  0.76470352    -0.82700
O564        O  0.77439286  0.62472404  0.76330620    -0.85300
C565        C  0.75165799  0.59353981  0.77234494     1.02400
O566        O  0.74030161  0.60078872  0.79039919    -0.78100
O567        O  0.73362867  0.63637171  0.82881890    -0.78300
C568        C  0.70143399  0.66221834  0.82563903     1.02300
Cr569      Cr  0.76019817  0.73461571  0.81255897     1.93700
Cr570      Cr  0.79135246  0.69256346  0.77180951     1.93200
Cr571      Cr  0.78177918  0.62716232  0.80930098     1.39100
O572        O  0.77810956  0.68498568  0.79789154    -1.23300
O573        O  0.96121338  0.29763055  0.06491548    -0.85600
O574        O  0.98859472  0.23053725  0.03686856    -0.82600
C575        C  0.97559247  0.24582265  0.01969436     0.97900
O576        O  0.98923575  0.28540716  0.01278613    -0.82700
O577        O  0.02875594  0.37512788  0.01059123    -0.85300
C578        C  0.00692364  0.40722174  0.01954789     1.02400
O579        O  0.99679939  0.40174017  0.03795113    -0.78100
O580        O  0.98933903  0.36466680  0.07631598    -0.78300
C581        C  0.95712472  0.33853565  0.07318617     1.02300
O582        O  0.04072638  0.29058163  0.08719854    -0.85600
O583        O  0.06924197  0.23244178  0.05622665    -0.82700
C584        C  0.07915272  0.21668917  0.03883181     0.97900
O585        O  0.06777495  0.23917112  0.02281761    -0.82700
O586        O  0.10480463  0.33075275  0.02306710    -0.85300
C587        C  0.11091999  0.37476725  0.02735498     1.02400
O588        O  0.08610245  0.39673872  0.03934775    -0.78100
O589        O  0.07990389  0.35081398  0.07667427    -0.78300
C590        C  0.07124075  0.31962933  0.09005526     1.02300
Cr591      Cr  0.01614572  0.26658760  0.06032926     1.93700
Cr592      Cr  0.04651867  0.30795558  0.01932571     1.93200
Cr593      Cr  0.03795175  0.37396374  0.05689921     1.39100
O594        O  0.03384273  0.31614906  0.04547673    -1.23300
O595        O  0.28061586  0.29442183  0.18960379    -0.85600
O596        O  0.25169083  0.22618638  0.21701235    -0.82600
C597        C  0.26433278  0.24033974  0.23438071     0.97900
O598        O  0.25133326  0.27997865  0.24149351    -0.82700
O599        O  0.21354718  0.37027745  0.24414922    -0.85300
C600        C  0.23542269  0.40250101  0.23531187     1.02400
O601        O  0.24599840  0.39721349  0.21694445    -0.78100
O602        O  0.25250481  0.36136202  0.17822957    -0.78300
C603        C  0.28471376  0.33544716  0.18140396     1.02300
O604        O  0.20107861  0.28883472  0.16719988    -0.85600
O605        O  0.17162178  0.23099924  0.19744660    -0.82700
C606        C  0.16114765  0.21412923  0.21453791     0.97900
O607        O  0.17215280  0.23563310  0.23087946    -0.82700
O608        O  0.13658565  0.32895152  0.23158957    -0.85300
C609        C  0.13165243  0.37337034  0.22752945     1.02400
O610        O  0.15687827  0.39454068  0.21547389    -0.78100
O611        O  0.16213590  0.34942728  0.17774438    -0.78300
C612        C  0.17046135  0.31765523  0.16454025     1.02300
Cr613      Cr  0.22517047  0.26387098  0.19383601     1.93700
Cr614      Cr  0.19452929  0.30402116  0.23501265     1.93200
Cr615      Cr  0.20439310  0.37114999  0.19777006     1.39100
O616        O  0.20762672  0.31300320  0.20892760    -1.23300
O617        O  0.28358105  0.70754594  0.33738607    -0.85600
O618        O  0.31856476  0.76500344  0.30781183    -0.82600
C619        C  0.33150476  0.78050308  0.29085925     0.97900
O620        O  0.32039337  0.75961642  0.27441131    -0.82700
O621        O  0.35394297  0.66614329  0.27550611    -0.85300
C622        C  0.35821214  0.62164869  0.27952842     1.02400
O623        O  0.33081475  0.60033378  0.29036620    -0.78100
O624        O  0.32310183  0.64720969  0.32732289    -0.78300
C625        C  0.31443987  0.67935243  0.34026379     1.02300
O626        O  0.20735934  0.70548600  0.31325574    -0.85600
O627        O  0.24021275  0.77141927  0.28636346    -0.82700
C628        C  0.22770938  0.75698504  0.26899903     0.97900
O629        O  0.24143399  0.71761986  0.26183825    -0.82700
O630        O  0.27788477  0.62597095  0.26052311    -0.85300
C631        C  0.25422544  0.59451796  0.26876910     1.02400
O632        O  0.24171547  0.60029621  0.28683244    -0.78100
O633        O  0.23182347  0.63712385  0.32526419    -0.78300
C634        C  0.20111094  0.66535246  0.32186817     1.02300
Cr635      Cr  0.26362271  0.73366820  0.31019727     1.93700
Cr636      Cr  0.29704931  0.69198956  0.26995629     1.93200
Cr637      Cr  0.28189872  0.62562558  0.30684980     1.39100
O638        O  0.28087483  0.68370415  0.29556956    -1.23300
O639        O  0.44906894  0.70495360  0.41488947    -0.85600
O640        O  0.42004927  0.76567701  0.44488684    -0.82600
C641        C  0.40947170  0.78174468  0.46215206     0.97900
O642        O  0.42003075  0.75952055  0.47830853    -0.82700
O643        O  0.38289208  0.66767226  0.47849811    -0.85300
C644        C  0.37692260  0.62342444  0.47444010     1.02400
O645        O  0.40278397  0.60106587  0.46319393    -0.78100
O646        O  0.40784871  0.64715329  0.42606713    -0.78300
C647        C  0.41673117  0.67848162  0.41279626     1.02300
O648        O  0.52767645  0.69880762  0.43735617    -0.85600
O649        O  0.50005686  0.76787993  0.46441494    -0.82700
C650        C  0.51244742  0.75356613  0.48179319     0.97900
O651        O  0.49812884  0.71479299  0.48918571    -0.82700
O652        O  0.45947094  0.62556428  0.49173348    -0.85300
C653        C  0.48193158  0.59339964  0.48330611     1.02400
O654        O  0.49175039  0.59704854  0.46473680    -0.78100
O655        O  0.49865919  0.63232960  0.42592661    -0.78300
C656        C  0.53117188  0.65790712  0.42902063     1.02300
Cr657      Cr  0.47298894  0.73066538  0.44137632     1.93700
Cr658      Cr  0.44118109  0.69143979  0.48246411     1.93200
Cr659      Cr  0.45043016  0.62384861  0.44557564     1.39100
O660        O  0.45469495  0.68205006  0.45657265    -1.23300
O661        O  0.76476781  0.32261249  0.67515006    -0.85600
O662        O  0.77604244  0.26952270  0.71038265    -0.82600
C663        C  0.77047567  0.25682015  0.72870506     0.97900
O664        O  0.73652524  0.26568095  0.73779245    -0.82700
O665        O  0.72882293  0.36510205  0.74226081    -0.85300
C666        C  0.72386172  0.40853039  0.73659123     1.02400
O667        O  0.70303678  0.41887678  0.72092777    -0.78100
O668        O  0.75442798  0.39212607  0.69032863    -0.78300
C669        C  0.77804081  0.36383269  0.68055469     1.02300
O670        O  0.68161689  0.27990414  0.67102080    -0.85600
O671        O  0.69757564  0.22360001  0.70436055    -0.82700
C672        C  0.66462777  0.22170000  0.71504687     0.97900
O673        O  0.65207200  0.25837806  0.72493993    -0.82700
O674        O  0.64191602  0.35655400  0.73335390    -0.85300
C675        C  0.62005607  0.37784386  0.72004854     1.02400
O676        O  0.63229825  0.38012402  0.70162477    -0.78100
O677        O  0.68299478  0.35873267  0.66748341    -0.78300
C678        C  0.67182993  0.31747453  0.66119666     1.02300
Cr679      Cr  0.72792560  0.27801508  0.69136030     1.93700
Cr680      Cr  0.69082526  0.31237318  0.73242006     1.93200
Cr681      Cr  0.69393746  0.38222180  0.69570424     1.39100
O682        O  0.70387094  0.32400798  0.70648152    -1.23300
O683        O  0.45371758  0.29689873  0.56552219    -0.85600
O684        O  0.48207715  0.22878359  0.53814377    -0.82600
C685        C  0.46919512  0.24333221  0.52089075     0.97900
O686        O  0.48314515  0.28225923  0.51344043    -0.82700
O687        O  0.52243352  0.37210472  0.51099372    -0.85300
C688        C  0.50080417  0.40477014  0.51963713     1.02400
O689        O  0.48932306  0.39959353  0.53789410    -0.78100
O690        O  0.48215137  0.36386373  0.57673659    -0.78300
C691        C  0.44988892  0.33776014  0.57388501     1.02300
O692        O  0.53296217  0.29108786  0.58780853    -0.85600
O693        O  0.56204181  0.23217515  0.55769230    -0.82700
C694        C  0.57352395  0.21627291  0.54058970     0.97900
O695        O  0.56175137  0.23719463  0.52427416    -0.82700
O696        O  0.59849912  0.32939997  0.52419911    -0.85300
C697        C  0.60452755  0.37350056  0.52859082     1.02400
O698        O  0.57832735  0.39569033  0.53971416    -0.78100
O699        O  0.57247437  0.35011827  0.57658464    -0.78300
C700        C  0.56479489  0.31840604  0.58985289     1.02300
Cr701      Cr  0.50879339  0.26591560  0.56126212     1.93700
Cr702      Cr  0.54020554  0.30560488  0.52015830     1.93200
Cr703      Cr  0.53031115  0.37291793  0.55712055     1.39100
O704        O  0.52653635  0.31480346  0.54608209    -1.23300
C705        C  0.59298384  0.31512602  0.60786894    -0.05700
C706        C  0.62461591  0.35036192  0.61016073    -0.33100
C707        C  0.65144162  0.35006822  0.62695899     0.36100
C708        C  0.64706086  0.31428849  0.64215437    -0.06100
C709        C  0.61676354  0.27767836  0.63958519    -0.33000
C710        C  0.58982990  0.27783721  0.62257777     0.36000
H711        H  0.62851617  0.37895339  0.59896764     0.16400
O712        O  0.68163790  0.38546237  0.62844452    -0.60500
H713        H  0.61306644  0.24975065  0.65108980     0.16400
O714        O  0.56016329  0.24200249  0.62076378    -0.60600
H715        H  0.57452576  0.21521882  0.61346068     0.43400
H716        H  0.70734029  0.37096584  0.62243783     0.43300
C717        C  0.49508706  0.45237811  0.50971659    -0.05700
C718        C  0.47099438  0.48790979  0.51965538    -0.33100
C719        C  0.46878351  0.53510165  0.51208934     0.36100
C720        C  0.49081070  0.54766065  0.49412553    -0.06100
C721        C  0.51611872  0.51266595  0.48459777    -0.33000
C722        C  0.51836682  0.46547207  0.49218208     0.36000
H723        H  0.45383738  0.47928793  0.53349352     0.16400
O724        O  0.44442413  0.56828907  0.52226909    -0.60500
H725        H  0.53354777  0.52148751  0.47085866     0.16400
O726        O  0.54451282  0.43306160  0.48264713    -0.60600
H727        H  0.52754271  0.41899155  0.47140120     0.43400
H728        H  0.41531941  0.56249854  0.51739685     0.43300
C729        C  0.34030795  0.68305205  0.35885387    -0.05700
C730        C  0.32129970  0.68360355  0.37817894    -0.33100
C731        C  0.34596991  0.68265197  0.39592020     0.36100
C732        C  0.39021330  0.68248992  0.39441731    -0.06100
C733        C  0.40910204  0.68417672  0.37509953    -0.33000
C734        C  0.38448297  0.68350097  0.35738710     0.36000
H735        H  0.28734799  0.68309861  0.37950145     0.16400
O736        O  0.32659071  0.68149016  0.41464124    -0.60500
H737        H  0.44304574  0.68420896  0.37372648     0.16400
O738        O  0.40383392  0.68409807  0.33865452    -0.60600
H739        H  0.41093077  0.64977886  0.33573854     0.43400
H740        H  0.32522338  0.71580092  0.41912859     0.43300
C741        C  0.24246314  0.45005580  0.24510663    -0.05700
C742        C  0.27117339  0.48263614  0.23629697    -0.33100
C743        C  0.27359960  0.53069358  0.24293555     0.36100
C744        C  0.24713384  0.54711200  0.25881539    -0.06100
C745        C  0.21828423  0.51456484  0.26754300    -0.33000
C746        C  0.21588350  0.46652659  0.26091713     0.36000
H747        H  0.29156494  0.47101147  0.22397147     0.16400
O748        O  0.30323776  0.56052770  0.23433063    -0.60500
H749        H  0.19778879  0.52614553  0.27983552     0.16400
O750        O  0.18601536  0.43679532  0.26939767    -0.60600
H751        H  0.19938333  0.42305840  0.28179378     0.43400
H752        H  0.28912155  0.57545268  0.22238175     0.43300
C753        C  0.09633460  0.31864234  0.10930775    -0.05700
C754        C  0.10004274  0.27575988  0.12084493    -0.33100
C755        C  0.12494363  0.27441999  0.13863120     0.36100
C756        C  0.14569914  0.31661622  0.14540928    -0.06100
C757        C  0.14141015  0.35948699  0.13415621    -0.33000
C758        C  0.11747082  0.36071718  0.11623240     0.36000
H759        H  0.08406196  0.24307051  0.11593623     0.16400
O760        O  0.12722376  0.23239086  0.14976832    -0.60500
H761        H  0.15701008  0.39229658  0.13924319     0.16400
O762        O  0.11475446  0.40360689  0.10570905    -0.60600
H763        H  0.08944769  0.41999629  0.11122443     0.43400
H764        H  0.15170633  0.21463363  0.14413691     0.43300
C765        C  0.73877198  0.44973246  0.74839862    -0.05700
C766        C  0.71513969  0.46372871  0.76536707    -0.33100
C767        C  0.71763313  0.51107105  0.77283105     0.36100
C768        C  0.74441586  0.54523517  0.76329033    -0.06100
C769        C  0.76897635  0.53048221  0.74658644    -0.33000
C770        C  0.76590438  0.48329588  0.73900164     0.36000
H771        H  0.69247578  0.43888813  0.77197943     0.16400
O772        O  0.69230172  0.52406230  0.78887588    -0.60500
H773        H  0.79058585  0.55550085  0.73931475     0.16400
O774        O  0.78850712  0.47053054  0.72196764    -0.60600
H775        H  0.77289234  0.48455460  0.71026346     0.43400
H776        H  0.70595392  0.51019130  0.80117660     0.43300
C777        C  0.99923625  0.45457949  0.00959166    -0.05700
C778        C  0.02409434  0.46804054  0.99277501    -0.33100
C779        C  0.02290964  0.51522453  0.98499197     0.36100
C780        C  0.99611092  0.55018000  0.99387305    -0.06100
C781        C  0.97114503  0.53662094  0.01065612    -0.33000
C782        C  0.97236065  0.48945053  0.01844116     0.36000
H783        H  0.04565406  0.44232336  0.98594424     0.16400
O784        O  0.04768347  0.52637297  0.96848400    -0.60500
H785        H  0.94957888  0.56228733  0.01750985     0.16400
O786        O  0.94744537  0.47815191  0.03488131    -0.60600
H787        H  0.92056693  0.46660401  0.02893554     0.43400
H788        H  0.07490594  0.53703139  0.97435265     0.43300
C789        C  0.89676926  0.68073329  0.89442734    -0.05700
C790        C  0.88212954  0.72513236  0.88665024    -0.33100
C791        C  0.85385571  0.72625163  0.87015448     0.36100
C792        C  0.84100193  0.68263954  0.86085600    -0.06100
C793        C  0.85552349  0.63842228  0.86874871    -0.33000
C794        C  0.88276607  0.63717495  0.88543007     0.36000
H795        H  0.89201211  0.75891978  0.89360840     0.16400
O796        O  0.84055264  0.77006146  0.86267885    -0.60500
H797        H  0.84579359  0.60445756  0.86187182     0.16400
O798        O  0.89584363  0.59302724  0.89269429    -0.60600
H799        H  0.92202296  0.58568458  0.88507790     0.43400
H800        H  0.81545504  0.77847208  0.87093379     0.43300
C801        C  0.84716675  0.92092417  0.96130304    -0.05700
C802        C  0.86997243  0.90696045  0.97869013    -0.33100
C803        C  0.88839948  0.86092060  0.97986044     0.36100
C804        C  0.88354580  0.82779959  0.96359952    -0.06100
C805        C  0.85941127  0.84118381  0.94660828    -0.33000
C806        C  0.84134930  0.88712060  0.94533249     0.36000
H807        H  0.87431410  0.93214888  0.99121967     0.16400
O808        O  0.91230768  0.84945799  0.99660940    -0.60500
H809        H  0.85502406  0.81611442  0.93402563     0.16400
O810        O  0.81674676  0.89787141  0.92871521    -0.60600
H811        H  0.83668838  0.90341296  0.91730580     0.43400
H812        H  0.94134520  0.85944321  0.99301039     0.43300
C813        C  0.89290477  0.15605166  0.98288989    -0.05700
C814        C  0.90045278  0.20466329  0.97754610    -0.33100
C815        C  0.92678648  0.23429163  0.98937238     0.36100
C816        C  0.94648171  0.21571725  0.00707787    -0.06100
C817        C  0.93962690  0.16685260  0.01220714    -0.33000
C818        C  0.91326096  0.13720804  0.00038278     0.36000
H819        H  0.88502959  0.22034444  0.96435697     0.16400
O820        O  0.93265143  0.28153674  0.98347868    -0.60500
H821        H  0.95471497  0.15133906  0.02552292     0.16400
O822        O  0.90696048  0.09014874  0.00644057    -0.60600
H823        H  0.88383404  0.09160941  0.01658867     0.43400
H824        H  0.90972849  0.29994206  0.99019988     0.43300
C825        C  0.87834764  0.92677968  0.78668530    -0.05700
C826        C  0.88234345  0.89435133  0.77024260    -0.33100
C827        C  0.86466493  0.84780957  0.77126996     0.36100
C828        C  0.84247206  0.83333089  0.78889910    -0.06100
C829        C  0.83712363  0.86664569  0.80490994    -0.33000
C830        C  0.85473229  0.91285797  0.80392448     0.36000
H831        H  0.90077837  0.90426222  0.75695961     0.16400
O832        O  0.87012691  0.81655078  0.75519355    -0.60500
H833        H  0.81898599  0.85701319  0.81832990     0.16400
O834        O  0.84820207  0.94447295  0.81981762    -0.60600
H835        H  0.86732024  0.93354457  0.83086306     0.43400
H836        H  0.89623370  0.79844194  0.75837509     0.43300
C837        C  0.89241276  0.07408676  0.85593588    -0.05700
C838        C  0.88185147  0.03013812  0.86550837    -0.33100
C839        C  0.85612471  0.02965716  0.88297279     0.36100
C840        C  0.84128369  0.07358605  0.89129410    -0.06100
C841        C  0.85242399  0.11739440  0.88188329    -0.33000
C842        C  0.87734448  0.11791564  0.86431280     0.36000
H843        H  0.89296598  0.99612018  0.85925152     0.16400
O844        O  0.84636099  0.98622658  0.89199333    -0.60500
H845        H  0.84147864  0.15152503  0.88812433     0.16400
O846        O  0.88701373  0.16168889  0.85552283    -0.60600
H847        H  0.91444237  0.17117200  0.86151953     0.43400
H848        H  0.86902329  0.98060146  0.90212056     0.43300
C849        C  0.84694134  0.16091817  0.76374966    -0.05700
C850        C  0.83458666  0.20583289  0.77185409    -0.33100
C851        C  0.81169689  0.23872094  0.76006655     0.36100
C852        C  0.80146340  0.22745774  0.73969894    -0.06100
C853        C  0.81428832  0.18309352  0.73139557    -0.33000
C854        C  0.83645295  0.14962068  0.74331938     0.36000
H855        H  0.84302689  0.21564648  0.78735391     0.16400
O856        O  0.79893419  0.28162863  0.76866124    -0.60500
H857        H  0.80568316  0.17357394  0.71588204     0.16400
O858        O  0.84930340  0.10697747  0.73454681    -0.60600
H859        H  0.82539707  0.08428788  0.73638756     0.43400
H860        H  0.82028614  0.30582627  0.76440261     0.43300
C861        C  0.34319477  0.59514461  0.48477999    -0.05700
C862        C  0.33474095  0.54741840  0.47830662    -0.33100
C863        C  0.30886406  0.51645541  0.48975030     0.36100
C864        C  0.29061420  0.53282364  0.50814937    -0.06100
C865        C  0.29821130  0.58095021  0.51432652    -0.33000
C866        C  0.32389221  0.61196066  0.50284054     0.36000
H867        H  0.34925476  0.53337751  0.46455102     0.16400
O868        O  0.30213733  0.47013875  0.48284693    -0.60500
H869        H  0.28432046  0.59483134  0.52825861     0.16400
O870        O  0.33167925  0.65772538  0.51011857    -0.60600
H871        H  0.30933555  0.67833432  0.50412216     0.43400
H872        H  0.32550368  0.45068613  0.48860909     0.43300
C873        C  0.32353850  0.38998215  0.57989112    -0.05700
C874        C  0.35749654  0.42250797  0.58106493    -0.33100
C875        C  0.39903232  0.40584501  0.58101017     0.36100
C876        C  0.40733826  0.35575623  0.57929780    -0.06100
C877        C  0.37335876  0.32310106  0.57990824    -0.33000
C878        C  0.33179991  0.33978718  0.58045648     0.36000
H879        H  0.35192088  0.46125978  0.58092355     0.16400
O880        O  0.43101860  0.43920527  0.58069178    -0.60500
H881        H  0.37888414  0.28441803  0.57889115     0.16400
O882        O  0.29969468  0.30665408  0.57955064    -0.60600
H883        H  0.29260038  0.29950728  0.59399349     0.43400
H884        H  0.43867979  0.44417417  0.59522871     0.43300
C885        C  0.98978799  0.20391040  0.75596433    -0.05700
C886        C  0.96192433  0.22050940  0.74085239    -0.33100
C887        C  0.96352388  0.26841084  0.73404075     0.36100
C888        C  0.99350717  0.30060573  0.74230206    -0.06100
C889        C  0.02162261  0.28377825  0.75722652    -0.33000
C890        C  0.02024306  0.23587497  0.76390462     0.36000
H891        H  0.93768513  0.19687693  0.73481191     0.16400
O892        O  0.93585195  0.28314582  0.71921107    -0.60500
H893        H  0.04586212  0.30734181  0.76330874     0.16400
O894        O  0.04848852  0.22094130  0.77843059    -0.60600
H895        H  0.07295224  0.20851164  0.77064031     0.43400
H896        H  0.91146949  0.29669159  0.72672433     0.43300
C897        C  0.14142317  0.44103841  0.60984376    -0.05700
C898        C  0.16029425  0.44422810  0.62915400    -0.33100
C899        C  0.13559346  0.44469504  0.64689353     0.36100
C900        C  0.09139377  0.44385879  0.64542681    -0.06100
C901        C  0.07249057  0.44370900  0.62609050    -0.33000
C902        C  0.09718249  0.44179439  0.60836837     0.36000
H903        H  0.19423464  0.44411163  0.63053364     0.16400
O904        O  0.15486733  0.44628461  0.66563371    -0.60500
H905        H  0.03854653  0.44302906  0.62475087     0.16400
O906        O  0.07778168  0.43987902  0.58967027    -0.60600
H907        H  0.07645173  0.47400645  0.58494077     0.43400
H908        H  0.16216615  0.41216510  0.66882680     0.43300
C909        C  0.89195973  0.60032357  0.77137137    -0.05700
C910        C  0.90017712  0.55226107  0.77734711    -0.33100
C911        C  0.92812959  0.52297981  0.76631840     0.36100
C912        C  0.94815843  0.54121116  0.74865434    -0.06100
C913        C  0.94146317  0.58992907  0.74325754    -0.33000
C914        C  0.91386332  0.61934972  0.75438794     0.36000
H915        H  0.88389722  0.53663320  0.79031443     0.16400
O916        O  0.93407967  0.47597387  0.77249993    -0.60500
H917        H  0.95721378  0.60535026  0.73009439     0.16400
O918        O  0.90768312  0.66621123  0.74805241    -0.60600
H919        H  0.88602020  0.66415586  0.73718727     0.43400
H920        H  0.95644052  0.47762577  0.78303527     0.43300
C921        C  0.90716239  0.40868950  0.67676799    -0.05700
C922        C  0.89689425  0.35919044  0.67601110    -0.33100
C923        C  0.85482676  0.34394912  0.67591906     0.36100
C924        C  0.82208846  0.37847791  0.67641724    -0.06100
C925        C  0.83243916  0.42793751  0.67584272    -0.33000
C926        C  0.87438764  0.44315137  0.67598394     0.36000
H927        H  0.92144183  0.33207636  0.67693753     0.16400
O928        O  0.84626946  0.29534040  0.67744241    -0.60500
H929        H  0.80785163  0.45507953  0.67612093     0.16400
O930        O  0.88282752  0.49192440  0.67643069    -0.60600
H931        H  0.88928704  0.50077380  0.66208490     0.43400
H932        H  0.84604355  0.28325597  0.66317623     0.43300
C933        C  0.35659159  0.82580054  0.29068904    -0.05700
C934        C  0.37291489  0.84289007  0.30927605    -0.33100
C935        C  0.39136116  0.88859804  0.31075261     0.36100
C936        C  0.39452124  0.91856119  0.29331040    -0.06100
C937        C  0.37956609  0.90084096  0.27449978    -0.33000
C938        C  0.36076659  0.85491761  0.27308585     0.36000
H939        H  0.37060142  0.82110668  0.32301234     0.16400
O940        O  0.40671173  0.90306470  0.32937445    -0.60500
H941        H  0.38204841  0.92278643  0.26082713     0.16400
O942        O  0.34491114  0.84002380  0.25464168    -0.60600
H943        H  0.36881746  0.82426316  0.24754953     0.43400
H944        H  0.38241471  0.91778055  0.33656182     0.43300
C945        C  0.29251332  0.20951519  0.24705831    -0.05700
C946        C  0.31283058  0.23001830  0.26404263    -0.33100
C947        C  0.33880857  0.20220511  0.27667383     0.36100
C948        C  0.34536179  0.15245500  0.27250576    -0.06100
C949        C  0.32384517  0.13148605  0.25593157    -0.33000
C950        C  0.29785211  0.15948518  0.24323876     0.36000
H951        H  0.30902463  0.26818733  0.26749068     0.16400
O952        O  0.35877740  0.22475860  0.29263815    -0.60500
H953        H  0.32829460  0.09352577  0.25228214     0.16400
O954        O  0.27730911  0.13723838  0.22737500    -0.60600
H955        H  0.29786974  0.13664550  0.21598626     0.43400
H956        H  0.33959398  0.22089288  0.30447097     0.43300
C957        C  0.38814441  0.82918220  0.46323769    -0.05700
C958        C  0.38771419  0.85826032  0.44565048    -0.33100
C959        C  0.36990976  0.90420217  0.44590553     0.36100
C960        C  0.35085777  0.92186054  0.46389206    -0.06100
C961        C  0.35235515  0.89363696  0.48173736    -0.33000
C962        C  0.37085277  0.84757183  0.48152452     0.36000
H963        H  0.40172521  0.84569777  0.43152033     0.16400
O964        O  0.37064943  0.93107278  0.42825551    -0.60500
H965        H  0.33790524  0.90650828  0.49571004     0.16400
O966        O  0.37145789  0.82088201  0.49919776    -0.60600
H967        H  0.34510887  0.80164138  0.49896919     0.43400
H968        H  0.39667325  0.95080238  0.42910564     0.43300
C969        C  0.23809895  0.19772175  0.49471133    -0.05700
C970        C  0.26319424  0.21001643  0.51161850    -0.33100
C971        C  0.26198913  0.25645316  0.52003731     0.36100
C972        C  0.23488825  0.29171687  0.51177669    -0.06100
C973        C  0.20911834  0.27919751  0.49511509    -0.33000
C974        C  0.21042514  0.23271072  0.48663640     0.36000
H975        H  0.28525819  0.18414221  0.51793124     0.16400
O976        O  0.28754906  0.26684239  0.53633657    -0.60500
H977        H  0.18708374  0.30519212  0.48885910     0.16400
O978        O  0.18501115  0.22227826  0.47027574    -0.60600
H979        H  0.15910675  0.20818278  0.47627346     0.43400
H980        H  0.31436661  0.27816589  0.53024510     0.43300
C981        C  0.34272069  0.06206135  0.39617963    -0.05700
C982        C  0.38633965  0.06784138  0.39881605    -0.33100
C983        C  0.41361214  0.06762913  0.38198641     0.36100
C984        C  0.39720360  0.06315747  0.36214175    -0.06100
C985        C  0.35375146  0.05660291  0.35951748    -0.33000
C986        C  0.32663757  0.05511623  0.37637648     0.36000
H987        H  0.39924841  0.07308887  0.41398033     0.16400
O988        O  0.45576997  0.07521249  0.38498286    -0.60500
H989        H  0.34073772  0.05327255  0.34427836     0.16400
O990        O  0.28423545  0.05025264  0.37321640    -0.60600
H991        H  0.27917140  0.01479542  0.37263171     0.43400
H992        H  0.46795651  0.04241110  0.38676771     0.43300
C993        C  0.43979013  0.21288406  0.50888372    -0.05700
C994        C  0.43878808  0.16251501  0.51210958    -0.33100
C995        C  0.41207304  0.13251478  0.50068277     0.36100
C996        C  0.38557948  0.15270354  0.48561532    -0.06100
C997        C  0.38724101  0.20309277  0.48221153    -0.33000
C998        C  0.41375807  0.23300835  0.49369748     0.36000
H999        H  0.45898361  0.14614365  0.52350794     0.16400
O1000       O  0.41206788  0.08361992  0.50451337    -0.60500
H1001       H  0.36691377  0.21989164  0.47098652     0.16400
O1002       O  0.41321391  0.28204630  0.49020984    -0.60600
H1003       H  0.39171688  0.29506651  0.49971400     0.43400
H1004       H  0.39306292  0.07921365  0.51638606     0.43300
C1005       C  0.50085397  0.29735663  0.24511537    -0.05700
C1006       C  0.46722652  0.26788923  0.23898763    -0.33100
C1007       C  0.46174610  0.22179924  0.24735950     0.36100
C1008       C  0.49036128  0.20432478  0.26209116    -0.06100
C1009       C  0.52373457  0.23402006  0.26839581    -0.33000
C1010       C  0.52915188  0.28018391  0.26006302     0.36000
H1011       H  0.44515953  0.28053437  0.22755724     0.16400
O1012       O  0.42708877  0.19527419  0.24178681    -0.60500
H1013       H  0.54575225  0.22141389  0.27985844     0.16400
O1014       O  0.56351760  0.30698865  0.26583698    -0.60600
H1015       H  0.55495879  0.32365929  0.27860013     0.43400
H1016       H  0.43519769  0.17861042  0.22895482     0.43300
C1017       C  0.44530081  0.53194172  0.24565461    -0.05700
C1018       C  0.44266545  0.58196268  0.24179713    -0.33100
C1019       C  0.41672052  0.61211179  0.25352806     0.36100
C1020       C  0.39177734  0.59247847  0.26937047    -0.06100
C1021       C  0.39505798  0.54245518  0.27348299    -0.33000
C1022       C  0.42170981  0.51245027  0.26196097     0.36000
H1023       H  0.46102951  0.59805689  0.22960959     0.16400
O1024       O  0.41476434  0.66041620  0.24867662    -0.60500
H1025       H  0.37603816  0.52607375  0.28535681     0.16400
O1026       O  0.42282022  0.46374593  0.26616608    -0.60600
H1027       H  0.44318005  0.46029676  0.27754472     0.43400
H1028       H  0.43644586  0.67615618  0.25731761     0.43300
C1029       C  0.41146170  0.38815139  0.17580488    -0.05700
C1030       C  0.37750429  0.42071452  0.17669620    -0.33100
C1031       C  0.33594593  0.40419066  0.17703472     0.36100
C1032       C  0.32738221  0.35404324  0.17657970    -0.06100
C1033       C  0.36110654  0.32154231  0.17427332    -0.33000
C1034       C  0.40281023  0.33819422  0.17369280     0.36000
H1035       H  0.38312418  0.45929112  0.17826579     0.16400
O1036       O  0.30432172  0.43727166  0.17988256    -0.60500
H1037       H  0.35527409  0.28284401  0.17382482     0.16400
O1038       O  0.43475834  0.30493621  0.17279273    -0.60600
H1039       H  0.43917890  0.29883501  0.15801649     0.43400
H1040       H  0.29691610  0.44869452  0.16597988     0.43300
C1041       C  0.74219290  0.29839506  0.00950391    -0.05700
C1042       C  0.71450057  0.28390437  0.99392147    -0.33100
C1043       C  0.71650502  0.23724611  0.98566205     0.36100
C1044       C  0.74660310  0.20401348  0.99299569    -0.06100
C1045       C  0.77395600  0.21838518  0.00872347    -0.33000
C1046       C  0.77189838  0.26498104  0.01699479     0.36000
H1047       H  0.69036738  0.30836467  0.98843416     0.16400
O1048       O  0.68835442  0.22423970  0.97073457    -0.60500
H1049       H  0.79808536  0.19398031  0.01424544     0.16400
O1050       O  0.79986437  0.27787287  0.03201131    -0.60600
H1051       H  0.78852969  0.26354185  0.04477647     0.43400
H1052       H  0.69905853  0.23929559  0.95798906     0.43300
C1053       C  0.64861173  0.43912904  0.10921963    -0.05700
C1054       C  0.60552099  0.44942625  0.10749504    -0.33100
C1055       C  0.57919086  0.44869048  0.12473126     0.36100
C1056       C  0.59565465  0.43617000  0.14401223    -0.06100
C1057       C  0.63903093  0.42669847  0.14569993    -0.33000
C1058       C  0.66549956  0.42886552  0.12857012     0.36000
H1059       H  0.59212469  0.45736622  0.09264677     0.16400
O1060       O  0.53722783  0.45855133  0.12240799    -0.60500
H1061       H  0.65246768  0.41721947  0.16037674     0.16400
O1062       O  0.70730942  0.41790056  0.13068672    -0.60600
H1063       H  0.72123997  0.44923597  0.13377508     0.43400
H1064       H  0.52414644  0.42717737  0.11859052     0.43300
C1065       C  0.79534180  0.53679583  0.00702566    -0.05700
C1066       C  0.81930141  0.51531223  0.99146359    -0.33100
C1067       C  0.84639266  0.54313777  0.97933723     0.36100
C1068       C  0.84987756  0.59369006  0.98257697    -0.06100
C1069       C  0.82441148  0.61536123  0.99756076    -0.33000
C1070       C  0.79745880  0.58750918  0.00970098     0.36000
H1071       H  0.81777371  0.47651488  0.98895651     0.16400
O1072       O  0.87048570  0.52001520  0.96495409    -0.60500
H1073       H  0.82634689  0.65398100  0.00043976     0.16400
O1074       O  0.77362450  0.61038920  0.02426318    -0.60600
H1075       H  0.74645051  0.61753421  0.01747906     0.43400
H1076       H  0.85390937  0.52166421  0.95214477     0.43300
C1077       C  0.91433609  0.35723450  0.07778298    -0.05700
C1078       C  0.90733582  0.40746753  0.07747751    -0.33100
C1079       C  0.86647533  0.42631417  0.07715261     0.36100
C1080       C  0.83132546  0.39484855  0.07741488    -0.06100
C1081       C  0.83837066  0.34480771  0.07949520    -0.33000
C1082       C  0.87934185  0.32590212  0.07945261     0.36000
H1083       H  0.93359384  0.43232159  0.07613571     0.16400
O1084       O  0.86145943  0.47552576  0.07541802    -0.60500
H1085       H  0.81206086  0.31985144  0.07985669     0.16400
O1086       O  0.88476044  0.27662970  0.08059052    -0.60600
H1087       H  0.87855312  0.26427836  0.06667606     0.43400
H1088       H  0.85842515  0.48742444  0.08963704     0.43300
C1089       C  0.19299824  0.46828528  0.99308076    -0.05700
C1090       C  0.17644480  0.42637780  0.98399751    -0.33100
C1091       C  0.15217004  0.39363560  0.99542859     0.36100
C1092       C  0.14303046  0.40332093  0.01617879    -0.06100
C1093       C  0.15958707  0.44539278  0.02516880    -0.33000
C1094       C  0.18500439  0.47715356  0.01393516     0.36000
H1095       H  0.18324031  0.41835293  0.96812897     0.16400
O1096       O  0.13572811  0.35366325  0.98584423    -0.60500
H1097       H  0.15247764  0.45395977  0.04095333     0.16400
O1098       O  0.20082959  0.51775732  0.02330559    -0.60600
H1099       H  0.22583246  0.50643211  0.03098658     0.43400
H1100       H  0.15780379  0.32843385  0.98693208     0.43300
C1101       C  0.08397459  0.65625173  0.92656309    -0.05700
C1102       C  0.09428964  0.60722186  0.92341609    -0.33100
C1103       C  0.13623513  0.59143943  0.92405218     0.36100
C1104       C  0.16890196  0.62479688  0.92809575    -0.06100
C1105       C  0.15880040  0.67428293  0.92958047    -0.33000
C1106       C  0.11706049  0.69013618  0.92866028     0.36000
H1107       H  0.06964759  0.58039643  0.92168722     0.16400
O1108       O  0.14438173  0.54278446  0.92245925    -0.60500
H1109       H  0.18327348  0.70086022  0.93231542     0.16400
O1110       O  0.10901732  0.73866808  0.93101431    -0.60600
H1111       H  0.10838919  0.75197579  0.91694294     0.43400
H1112       H  0.14714381  0.53657229  0.90759600     0.43300
C1113       C  0.39430262  0.56731519  0.85832234    -0.05700
C1114       C  0.36623860  0.60519436  0.86274714    -0.33100
C1115       C  0.34084708  0.60418193  0.88012692     0.36100
C1116       C  0.34298203  0.56478119  0.89387885    -0.06100
C1117       C  0.37045398  0.52628849  0.88938416    -0.33000
C1118       C  0.39598420  0.52732593  0.87180372     0.36000
H1119       H  0.36390026  0.63629064  0.85269870     0.16400
O1120       O  0.31412796  0.64237804  0.88350583    -0.60500
H1121       H  0.37280059  0.49574528  0.89972448     0.16400
O1122       O  0.42254393  0.48921966  0.86809253    -0.60600
H1123       H  0.40615643  0.46648963  0.85945447     0.43400
H1124       H  0.28714099  0.63270277  0.87710228     0.43300
C1125       C  0.58376642  0.40572928  0.72780978    -0.05700
C1126       C  0.58268686  0.45599906  0.72455884    -0.33100
C1127       C  0.55865858  0.48629290  0.73725917     0.36100
C1128       C  0.53461442  0.46636883  0.75338607    -0.06100
C1129       C  0.53413336  0.41580629  0.75591334    -0.33000
C1130       C  0.55833920  0.38569549  0.74332798     0.36000
H1131       H  0.60318648  0.47229097  0.71324904     0.16400
O1132       O  0.56066775  0.53550740  0.73439626    -0.60500
H1133       H  0.51532854  0.39949191  0.76788947     0.16400
O1134       O  0.55901046  0.33679495  0.74714620    -0.60600
H1135       H  0.53925154  0.32242672  0.73710836     0.43400
H1136       H  0.58388004  0.54674021  0.74334684     0.43300
C1137       C  0.57614421  0.60568164  0.82760979    -0.05700
C1138       C  0.58307863  0.65547204  0.83076988    -0.33100
C1139       C  0.62393320  0.67420863  0.83192790     0.36100
C1140       C  0.65883582  0.64304872  0.83006932    -0.06100
C1141       C  0.65186305  0.59281170  0.82913916    -0.33000
C1142       C  0.61102044  0.57406692  0.82763836     0.36000
H1143       H  0.55687043  0.68051368  0.83106211     0.16400
O1144       O  0.62932312  0.72334963  0.83378288    -0.60500
H1145       H  0.67818680  0.56808346  0.82807527     0.16400
O1146       O  0.60568827  0.52491775  0.82563521    -0.60600
H1147       H  0.61157643  0.51777054  0.81105852     0.43400
H1148       H  0.63170352  0.72931591  0.84867996     0.43300
C1149       C  0.63642951  0.07830746  0.54006683    -0.05700
C1150       C  0.63354446  0.10575437  0.55806989    -0.33100
C1151       C  0.61515230  0.15139389  0.55814128     0.36100
C1152       C  0.59795636  0.17068671  0.54000649    -0.06100
C1153       C  0.60116457  0.14373141  0.52182995    -0.33000
C1154       C  0.62023801  0.09785470  0.52174731     0.36000
H1155       H  0.64622752  0.09223659  0.57233325     0.16400
O1156       O  0.61380473  0.17645280  0.57624684    -0.60500
H1157       H  0.58803227  0.15767705  0.50773871     0.16400
O1158       O  0.62282870  0.07270882  0.50371517    -0.60600
H1159       H  0.59699991  0.05258033  0.50320477     0.43400
H1160       H  0.63937532  0.19705439  0.57625384     0.43300
C1161       C  0.59386172  0.84519438  0.51807754    -0.05700
C1162       C  0.58682325  0.79659839  0.52364719    -0.33100
C1163       C  0.56109959  0.76625828  0.51190065     0.36100
C1164       C  0.54159607  0.78408483  0.49405861    -0.06100
C1165       C  0.54854515  0.83265712  0.48845968    -0.33000
C1166       C  0.57423567  0.86307232  0.50024481     0.36000
H1167       H  0.60218226  0.78143627  0.53696148     0.16400
O1168       O  0.55669579  0.71867144  0.51762001    -0.60500
H1169       H  0.53394982  0.84736032  0.47485335     0.16400
O1170       O  0.58155264  0.90941788  0.49352705    -0.60600
H1171       H  0.55839565  0.92910529  0.49934411     0.43400
H1172       H  0.53467840  0.71872880  0.52834918     0.43300
C1173       C  0.60535509  0.08166874  0.71584870    -0.05700
C1174       C  0.60168922  0.11231251  0.73295874    -0.33100
C1175       C  0.61973433  0.15879347  0.73288694     0.36100
C1176       C  0.64228284  0.17479457  0.71565403    -0.06100
C1177       C  0.64674446  0.14353764  0.69884380    -0.33000
C1178       C  0.62849751  0.09764142  0.69878381     0.36000
H1179       H  0.58379700  0.10080680  0.74618612     0.16400
O1180       O  0.61642264  0.18741880  0.74993926    -0.60500
H1181       H  0.66441136  0.15479541  0.68549597     0.16400
O1182       O  0.63420008  0.06829747  0.68206631    -0.60600
H1183       H  0.61411433  0.08031432  0.67164484     0.43400
H1184       H  0.58942820  0.20495220  0.74833742     0.43300
C1185       C  0.49463096  0.80236604  0.74470112    -0.05700
C1186       C  0.52398257  0.78487301  0.75893904    -0.33100
C1187       C  0.52198037  0.73711654  0.76600120     0.36100
C1188       C  0.49022485  0.70581644  0.75882030    -0.06100
C1189       C  0.46119935  0.72308807  0.74437806    -0.33000
C1190       C  0.46308013  0.77088177  0.73738979     0.36000
H1191       H  0.54951273  0.80777291  0.76416507     0.16400
O1192       O  0.55186156  0.72101896  0.77951209    -0.60500
H1193       H  0.43590391  0.70004078  0.73899080     0.16400
O1194       O  0.43410222  0.78625848  0.72328864    -0.60600
H1195       H  0.40980600  0.79785886  0.73142183     0.43400
H1196       H  0.54343831  0.73431762  0.79298370     0.43300
C1197       C  0.59261483  0.93878381  0.64582535    -0.05700
C1198       C  0.57355074  0.94198163  0.62655560    -0.33100
C1199       C  0.59782177  0.93970792  0.60866251     0.36100
C1200       C  0.64195757  0.93600935  0.60986660    -0.06100
C1201       C  0.66118114  0.93519734  0.62915234    -0.33000
C1202       C  0.63684315  0.93590524  0.64703501     0.36000
H1203       H  0.53965144  0.94439414  0.62535342     0.16400
O1204       O  0.57820061  0.94205505  0.59003179    -0.60500
H1205       H  0.69506146  0.93236241  0.63034700     0.16400
O1206       O  0.65657109  0.93326904  0.66563915    -0.60600
H1207       H  0.65961778  0.96736841  0.67022192     0.43400
H1208       H  0.56942937  0.90831017  0.58697519     0.43300
C1209       C  0.69286857  0.78581545  0.75897538    -0.05700
C1210       C  0.69212825  0.83609189  0.76254202    -0.33100
C1211       C  0.66679575  0.86696272  0.75083834     0.36100
C1212       C  0.64070991  0.84777181  0.73535177    -0.06100
C1213       C  0.64271382  0.79764584  0.73130430    -0.33000
C1214       C  0.66840163  0.76687535  0.74289118     0.36000
H1215       H  0.71140062  0.85175531  0.77449675     0.16400
O1216       O  0.66666056  0.91553534  0.75532045    -0.60500
H1217       H  0.62311142  0.78169272  0.71955391     0.16400
O1218       O  0.66844092  0.71817542  0.73864628    -0.60600
H1219       H  0.64526948  0.70441070  0.74697230     0.43400
H1220       H  0.68790633  0.93005503  0.74606446     0.43300
C1221       C  0.74417196  0.70104944  0.49322829    -0.05700
C1222       C  0.77240905  0.71623392  0.50849347    -0.33100
C1223       C  0.77020323  0.76297483  0.51671083     0.36100
C1224       C  0.73912689  0.79547808  0.50983931    -0.06100
C1225       C  0.71144638  0.78063932  0.49431148    -0.33000
C1226       C  0.71366343  0.73397198  0.48607592     0.36000
H1227       H  0.79709614  0.69223738  0.51374643     0.16400
O1228       O  0.79842661  0.77630365  0.53153232    -0.60500
H1229       H  0.68682369  0.80466985  0.48901161     0.16400
O1230       O  0.68580299  0.72104639  0.47102782    -0.60600
H1231       H  0.66159262  0.70636246  0.47830815     0.43400
H1232       H  0.82113733  0.79372508  0.52417957     0.43300
C1233       C  0.69393431  0.45975481  0.49472342    -0.05700
C1234       C  0.67525239  0.47824835  0.51253384    -0.33100
C1235       C  0.64779474  0.44992325  0.52429169     0.36100
C1236       C  0.63883813  0.40154118  0.51857755    -0.06100
C1237       C  0.65883712  0.38243789  0.50121960    -0.33000
C1238       C  0.68580733  0.41100444  0.48928651     0.36000
H1239       H  0.68129624  0.51525861  0.51725233     0.16400
O1240       O  0.62985284  0.47012994  0.54134522    -0.60500
H1241       H  0.65237840  0.34563300  0.49635124     0.16400
O1242       O  0.70433967  0.39049263  0.47245626    -0.60600
H1243       H  0.68349310  0.39410252  0.46129425     0.43400
H1244       H  0.60619438  0.49006655  0.53617584     0.43300
C1245       C  0.65639799  0.60139357  0.42460330    -0.05700
C1246       C  0.64919130  0.65123637  0.42180873    -0.33100
C1247       C  0.60829039  0.66994284  0.42166949     0.36100
C1248       C  0.57353342  0.63871473  0.42422955    -0.06100
C1249       C  0.58052607  0.58852745  0.42519301    -0.33000
C1250       C  0.62142295  0.56978875  0.42544257     0.36000
H1251       H  0.67536143  0.67632524  0.42097850     0.16400
O1252       O  0.60285398  0.71913105  0.42012162    -0.60500
H1253       H  0.55432917  0.56381231  0.42714952     0.16400
O1254       O  0.62668871  0.52075233  0.42776378    -0.60600
H1255       H  0.62732555  0.50757031  0.41367116     0.43400
H1256       H  0.59598812  0.72502221  0.40555367     0.43300
C1257       C  0.89532631  0.56436202  0.35915015    -0.05700
C1258       C  0.87157430  0.52299884  0.36424433    -0.33100
C1259       C  0.84441543  0.52319086  0.38123614     0.36100
C1260       C  0.84098662  0.56506423  0.39354181    -0.06100
C1261       C  0.86533045  0.60582924  0.38857766    -0.33000
C1262       C  0.89223519  0.60576893  0.37179287     0.36000
H1263       H  0.87350495  0.49069513  0.35487224     0.16400
O1264       O  0.82247324  0.48188607  0.38598666    -0.60500
H1265       H  0.86355970  0.63844713  0.39776992     0.16400
O1266       O  0.91515829  0.64691307  0.36789272    -0.60600
H1267       H  0.94160173  0.64293756  0.37573723     0.43400
H1268       H  0.79688669  0.48300652  0.37734977     0.43300
C1269       C  0.05263417  0.46964632  0.26253844    -0.05700
C1270       C  0.06321353  0.42392206  0.27039292    -0.33100
C1271       C  0.08659411  0.39074340  0.25868557     0.36100
C1272       C  0.10054091  0.40345235  0.23886236    -0.06100
C1273       C  0.08995717  0.44948075  0.23118523    -0.33000
C1274       C  0.06606880  0.48211622  0.24273974     0.36000
H1275       H  0.05219552  0.41329780  0.28540838     0.16400
O1276       O  0.09704474  0.34689488  0.26714235    -0.60500
H1277       H  0.10067305  0.46056455  0.21618045     0.16400
O1278       O  0.05581818  0.52626176  0.23449243    -0.60600
H1279       H  0.07893167  0.54835199  0.23861410     0.43400
H1280       H  0.07264472  0.32546658  0.26438035     0.43300
C1281       C  0.15738686  0.65122685  0.32707574    -0.05700
C1282       C  0.12592579  0.68704143  0.32749853    -0.33100
C1283       C  0.08333273  0.67438528  0.32765800     0.36100
C1284       C  0.07144872  0.62519314  0.32713261    -0.06100
C1285       C  0.10277414  0.58950545  0.32877746    -0.33000
C1286       C  0.14543206  0.60213861  0.32878435     0.36000
H1287       H  0.13428214  0.72509206  0.32669466     0.16400
O1288       O  0.05365929  0.71041060  0.32726954    -0.60500
H1289       H  0.09437938  0.55142550  0.32851029     0.16400
O1290       O  0.17490425  0.56591653  0.32841044    -0.60600
H1291       H  0.18143856  0.55932662  0.34295986     0.43400
H1292       H  0.04734059  0.71730619  0.34181964     0.43300
C1293       C  0.13935036  0.16668731  0.21475628    -0.05700
C1294       C  0.13702224  0.14079473  0.19629079    -0.33100
C1295       C  0.11834352  0.09532468  0.19529466     0.36100
C1296       C  0.10113200  0.07417500  0.21303731    -0.06100
C1297       C  0.10424767  0.09929604  0.23170725    -0.33000
C1298       C  0.12317694  0.14525605  0.23266270     0.36000
H1299       H  0.15007866  0.15554517  0.18231730     0.16400
O1300       O  0.11781282  0.07163135  0.17684129    -0.60500
H1301       H  0.09110431  0.08386137  0.24552363     0.16400
O1302       O  0.12560436  0.16864910  0.25111037    -0.60600
H1303       H  0.09962501  0.18838108  0.25197416     0.43400
H1304       H  0.09453521  0.08664482  0.16899626     0.43300
C1305       C  0.99383360  0.79234471  0.23949307    -0.05700
C1306       C  0.02525728  0.77145959  0.25171201    -0.33100
C1307       C  0.02182040  0.72341883  0.25819686     0.36100
C1308       C  0.98720392  0.69538618  0.25207491    -0.06100
C1309       C  0.95595270  0.71603060  0.23981036    -0.33000
C1310       C  0.95900432  0.76427871  0.23343865     0.36000
H1311       H  0.05273501  0.79225447  0.25611515     0.16400
O1312       O  0.05146298  0.70465060  0.27119854    -0.60500
H1313       H  0.92765720  0.69565830  0.23634011     0.16400
O1314       O  0.92660219  0.78497874  0.22262428    -0.60600
H1315       H  0.91974827  0.76219961  0.21136991     0.43400
H1316       H  0.04301896  0.71572325  0.28501575     0.43300
C1317       C  0.19824863  0.78723114  0.25666694    -0.05700
C1318       C  0.18130157  0.76879311  0.23837903    -0.33100
C1319       C  0.15327783  0.79620797  0.22653444     0.36100
C1320       C  0.14168875  0.84339068  0.23272761    -0.06100
C1321       C  0.15959871  0.86234127  0.25067287    -0.33000
C1322       C  0.18712479  0.83474341  0.26266658     0.36000
H1323       H  0.18929935  0.73257042  0.23330492     0.16400
O1324       O  0.13673539  0.77591980  0.20917281    -0.60500
H1325       H  0.15098431  0.89819963  0.25596593     0.16400
O1326       O  0.20291861  0.85488583  0.28022472    -0.60600
H1327       H  0.18169847  0.84775017  0.29091915     0.43400
H1328       H  0.15623851  0.78538859  0.19804324     0.43300
C1329       C  0.13817725  0.07660531  0.03709100    -0.05700
C1330       C  0.14210891  0.10776616  0.02019344    -0.33100
C1331       C  0.12340957  0.15388330  0.02038940     0.36100
C1332       C  0.10033678  0.16911049  0.03762890    -0.06100
C1333       C  0.09561211  0.13717598  0.05417408    -0.33000
C1334       C  0.11388168  0.09142611  0.05394947     0.36000
H1335       H  0.16107935  0.09718701  0.00718901     0.16400
O1336       O  0.12877449  0.18401884  0.00393213    -0.60500
H1337       H  0.07723098  0.14744000  0.06742686     0.16400
O1338       O  0.10823860  0.06169275  0.07052463    -0.60600
H1339       H  0.08240643  0.04286320  0.06749533     0.43400
H1340       H  0.15381389  0.20395111  0.00727572     0.43300
C1341       C  0.24168970  0.79112930  0.01303143    -0.05700
C1342       C  0.27084198  0.76078124  0.02297180    -0.33100
C1343       C  0.27544776  0.71235495  0.01723343     0.36100
C1344       C  0.25083492  0.69351662  0.00134601    -0.06100
C1345       C  0.22088969  0.72306095  0.99178695    -0.33000
C1346       C  0.21594869  0.77145297  0.99757922     0.36000
H1347       H  0.29068906  0.77479079  0.03506109     0.16400
O1348       O  0.30678956  0.68507857  0.02587697    -0.60500
H1349       H  0.20304348  0.70930919  0.97890968     0.16400
O1350       O  0.18653305  0.79925591  0.98772966    -0.60600
H1351       H  0.15957259  0.79211950  0.99472375     0.43400
H1352       H  0.29325275  0.66800426  0.03747543     0.43300
C1353       C  0.15165732  0.93657249  0.10933202    -0.05700
C1354       C  0.12345366  0.97450919  0.11314405    -0.33100
C1355       C  0.09567095  0.97226844  0.12980550     0.36100
C1356       C  0.09664542  0.93201891  0.14316104    -0.06100
C1357       C  0.12579769  0.89471351  0.13938215    -0.33000
C1358       C  0.15281390  0.89666812  0.12261330     0.36000
H1359       H  0.12189483  0.00500950  0.10277762     0.16400
O1360       O  0.06800079  0.00964202  0.13289254    -0.60500
H1361       H  0.12733223  0.86327342  0.14927447     0.16400
O1362       O  0.17958090  0.85865375  0.11897931    -0.60600
H1363       H  0.20605173  0.86733479  0.12610230     0.43400
H1364       H  0.04340514  0.00196270  0.12415751     0.43300
C1365       C  0.03935945  0.79162870  0.99616522    -0.05700
C1366       C  0.05697904  0.77283650  0.01421419    -0.33100
C1367       C  0.08471733  0.80040168  0.02613372     0.36100
C1368       C  0.09507593  0.84818707  0.02032146    -0.06100
C1369       C  0.07559549  0.86792563  0.00290652    -0.33000
C1370       C  0.04830864  0.84016229  0.99082846     0.36000
H1371       H  0.05004859  0.73605987  0.01895726     0.16400
O1372       O  0.10168708  0.78002359  0.04337233    -0.60500
H1373       H  0.08288644  0.90451533  0.99802791     0.16400
O1374       O  0.03052653  0.86111530  0.97390544    -0.60600
H1375       H  0.05176732  0.85757192  0.96291330     0.43400
H1376       H  0.12496456  0.75918813  0.03842797     0.43300
C1377       C  0.13447289  0.57494162  0.53933586    -0.05700
C1378       C  0.11185784  0.58900250  0.55668903    -0.33100
C1379       C  0.09177220  0.63357638  0.55749604     0.36100
C1380       C  0.09411358  0.66564022  0.54070760    -0.06100
C1381       C  0.11566092  0.65109791  0.52300735    -0.33000
C1382       C  0.13586672  0.60600649  0.52223149     0.36000
H1383       H  0.11005605  0.56545842  0.56992539     0.16400
O1384       O  0.06993616  0.64523887  0.57489631    -0.60500
H1385       H  0.11753254  0.67503823  0.50991500     0.16400
O1386       O  0.15879367  0.59402899  0.50521938    -0.60600
H1387       H  0.13829025  0.57921340  0.49566169     0.43400
H1388       H  0.04101503  0.63296140  0.57257133     0.43300
C1389       C  0.13852813  0.89764952  0.51911064    -0.05700
C1390       C  0.14854431  0.94458798  0.52587602    -0.33100
C1391       C  0.17447140  0.97511980  0.51433967     0.36100
C1392       C  0.19148785  0.95894177  0.49558404    -0.06100
C1393       C  0.18203182  0.91166669  0.48898508    -0.33000
C1394       C  0.15598922  0.88115860  0.50052454     0.36000
H1395       H  0.13522506  0.95837947  0.53996101     0.16400
O1396       O  0.18252775  0.02088238  0.52156212    -0.60500
H1397       H  0.19463416  0.89818173  0.47469838     0.16400
O1398       O  0.14587846  0.83641738  0.49279625    -0.60600
H1399       H  0.16855046  0.81452685  0.49756481     0.43400
H1400       H  0.15958635  0.04137743  0.51603968     0.43300
C1401       C  0.88874697  0.65250511  0.48358512    -0.05700
C1402       C  0.91162621  0.63141030  0.49966982    -0.33100
C1403       C  0.93777694  0.65951127  0.51221607     0.36100
C1404       C  0.94223342  0.70974674  0.50862349    -0.06100
C1405       C  0.92079369  0.73043606  0.49203547    -0.33000
C1406       C  0.89400972  0.70261537  0.47974786     0.36000
H1407       H  0.90813696  0.59318440  0.50308676     0.16400
O1408       O  0.95937484  0.63715652  0.52770665    -0.60500
H1409       H  0.92401026  0.76878074  0.48878542     0.16400
O1410       O  0.87275864  0.72516735  0.46418958    -0.60600
H1411       H  0.84812233  0.74070711  0.47078158     0.43400
H1412       H  0.93941724  0.63588018  0.53933775     0.43300
C1413       C  0.90710519  0.85337827  0.57946834    -0.05700
C1414       C  0.87277640  0.82121782  0.57880390    -0.33100
C1415       C  0.83136764  0.83837666  0.57893598     0.36100
C1416       C  0.82351673  0.88868275  0.57914645    -0.06100
C1417       C  0.85763411  0.92064398  0.58143177    -0.33000
C1418       C  0.89907326  0.90338748  0.58186680     0.36000
H1419       H  0.87796683  0.78257956  0.57721750     0.16400
O1420       O  0.79907632  0.80572724  0.57698985    -0.60500
H1421       H  0.85230650  0.95941340  0.58203848     0.16400
O1422       O  0.93141101  0.93603797  0.58368929    -0.60600
H1423       H  0.93653598  0.94824538  0.56967055     0.43400
H1424       H  0.79203948  0.79593658  0.59116256     0.43300
C1425       C  0.10249266  0.58176001  0.71675944    -0.05700
C1426       C  0.12758180  0.59561655  0.70019452    -0.33100
C1427       C  0.14612489  0.64121293  0.69958080     0.36100
C1428       C  0.14059371  0.67386315  0.71598745    -0.06100
C1429       C  0.11491972  0.66048083  0.73248286    -0.33000
C1430       C  0.09567645  0.61475740  0.73290034     0.36000
H1431       H  0.13227083  0.57122098  0.68740548     0.16400
O1432       O  0.16931511  0.65361698  0.68268087    -0.60500
H1433       H  0.11008995  0.68522948  0.74512083     0.16400
O1434       O  0.06940870  0.60331084  0.74880975    -0.60600
H1435       H  0.04092607  0.61288305  0.74416105     0.43400
H1436       H  0.14929642  0.67026333  0.67342714     0.43300
C1437       C  0.14774143  0.80749786  0.64355711    -0.05700
C1438       C  0.11135767  0.77858098  0.64310461    -0.33100
C1439       C  0.08411894  0.77963228  0.62615825     0.36100
C1440       C  0.09348154  0.80946090  0.60918032    -0.06100
C1441       C  0.13125844  0.83613220  0.60938106    -0.33000
C1442       C  0.15807451  0.83532557  0.62628336     0.36000
H1443       H  0.10302512  0.75684723  0.65629243     0.16400
O1444       O  0.04817918  0.75216891  0.62660134    -0.60500
H1445       H  0.14000872  0.85847016  0.59644489     0.16400
O1446       O  0.19420110  0.86251031  0.62587123    -0.60600
H1447       H  0.21609530  0.84050965  0.62037000     0.43400
H1448       H  0.02674290  0.77305031  0.63319489     0.43300
C1449       C  0.03137490  0.96379379  0.75202157    -0.05700
C1450       C  0.03312330  0.91402968  0.75639181    -0.33100
C1451       C  0.05706142  0.88256513  0.74434566     0.36100
C1452       C  0.08025508  0.90047105  0.72759042    -0.06100
C1453       C  0.07638876  0.94956040  0.72233180    -0.33000
C1454       C  0.05240631  0.98123657  0.73442826     0.36000
H1455       H  0.01642874  0.89939803  0.76944258     0.16400
O1456       O  0.06006972  0.83476242  0.74994854    -0.60500
H1457       H  0.09485955  0.96430616  0.70987932     0.16400
O1458       O  0.05148917  0.02951554  0.72942483    -0.60600
H1459       H  0.07553925  0.04419821  0.73683389     0.43400
H1460       H  0.03521249  0.81877771  0.74375688     0.43300
C1461       C  0.34759518  0.66049645  0.76675276    -0.05700
C1462       C  0.33344952  0.70438901  0.77518181    -0.33100
C1463       C  0.30948457  0.73681836  0.76356071     0.36100
C1464       C  0.30019009  0.72635377  0.74298190    -0.06100
C1465       C  0.31472885  0.68296126  0.73441404    -0.33000
C1466       C  0.33799214  0.65000048  0.74613121     0.36000
H1467       H  0.34117852  0.71368772  0.79082320     0.16400
O1468       O  0.29497792  0.77856618  0.77249933    -0.60500
H1469       H  0.30687885  0.67384933  0.71876435     0.16400
O1470       O  0.35191448  0.60810824  0.73709996    -0.60600
H1471       H  0.37960108  0.61648317  0.73108323     0.43400
H1472       H  0.31563178  0.80395869  0.76868519     0.43300
C1473       C  0.32124345  0.87925161  0.67879797    -0.05700
C1474       C  0.35304448  0.84446559  0.67589448    -0.33100
C1475       C  0.39568294  0.85774808  0.67585230     0.36100
C1476       C  0.40732374  0.90671830  0.67857919    -0.06100
C1477       C  0.37535707  0.94174080  0.68013729    -0.33000
C1478       C  0.33288559  0.92846747  0.68045408     0.36000
H1479       H  0.34505047  0.80635234  0.67484589     0.16400
O1480       O  0.42555269  0.82204082  0.67478386    -0.60500
H1481       H  0.38325274  0.97969496  0.68206179     0.16400
O1482       O  0.30307090  0.96398592  0.68273785    -0.60600
H1483       H  0.30359604  0.97263702  0.69744710     0.43400
H1484       H  0.43058817  0.81708174  0.65998025     0.43300
C1485       C  0.39083108  0.33094943  0.97259923    -0.05700
C1486       C  0.41440555  0.37408445  0.97373347    -0.33100
C1487       C  0.39478800  0.41931331  0.97281248     0.36100
C1488       C  0.35095234  0.42183870  0.97058607    -0.06100
C1489       C  0.32723378  0.37868210  0.97023477    -0.33000
C1490       C  0.34687669  0.33341899  0.97130798     0.36000
H1491       H  0.44839602  0.37266447  0.97473839     0.16400
O1492       O  0.41886803  0.46059749  0.97322409    -0.60500
H1493       H  0.29332202  0.38004018  0.96876507     0.16400
O1494       O  0.32306930  0.29202016  0.97009260    -0.60600
H1495       H  0.32082268  0.28481123  0.95528513     0.43400
H1496       H  0.42558739  0.46760387  0.95872223     0.43300
C1497       C  0.55013542  0.28326994  0.99452191    -0.05700
C1498       C  0.56684001  0.32502922  0.98537837    -0.33100
C1499       C  0.59099492  0.35799511  0.99674707     0.36100
C1500       C  0.59983022  0.34888421  0.01756081    -0.06100
C1501       C  0.58330948  0.30682576  0.02662863    -0.33000
C1502       C  0.55830403  0.27455129  0.01538966     0.36000
H1503       H  0.56023142  0.33281742  0.96947353     0.16400
O1504       O  0.60764974  0.39765114  0.98702848    -0.60500
H1505       H  0.59025670  0.29860686  0.04246091     0.16400
O1506       O  0.54219372  0.23434318  0.02493734    -0.60600
H1507       H  0.56315473  0.20835623  0.02256222     0.43400
H1508       H  0.58580132  0.42313736  0.98813662     0.43300
C1509       C  0.57366087  0.13679817  0.92668212    -0.05700
C1510       C  0.58368461  0.08747558  0.92487687    -0.33100
C1511       C  0.62550670  0.07214593  0.92370180     0.36100
C1512       C  0.65854663  0.10639606  0.92427919    -0.06100
C1513       C  0.64840538  0.15600177  0.92420821    -0.33000
C1514       C  0.60638535  0.17133599  0.92552443     0.36000
H1515       H  0.55903543  0.06034459  0.92533899     0.16400
O1516       O  0.63373882  0.02337515  0.92257644    -0.60500
H1517       H  0.67313841  0.18301183  0.92468188     0.16400
O1518       O  0.59800610  0.21996695  0.92713814    -0.60600
H1519       H  0.60184952  0.22781281  0.94181165     0.43400
H1520       H  0.62918968  0.01075674  0.93660240     0.43300
C1521       C  0.33574289  0.09801839  0.97781716    -0.05700
C1522       C  0.33501067  0.04801335  0.97373201    -0.33100
C1523       C  0.31154212  0.01620234  0.98609997     0.36100
C1524       C  0.28836587  0.03436535  0.00286084    -0.06100
C1525       C  0.28672586  0.08478256  0.00583885    -0.33000
C1526       C  0.30980829  0.11636338  0.99344444     0.36000
H1527       H  0.35543482  0.03306776  0.96207848     0.16400
O1528       O  0.31327517  0.96735208  0.98228087    -0.60500
H1529       H  0.26803439  0.09992339  0.01811913     0.16400
O1530       O  0.30928830  0.16506683  0.99769493    -0.60600
H1531       H  0.28647669  0.17851742  0.98907596     0.43400
H1532       H  0.33780998  0.95546477  0.99016536     0.43300
C1533       C  0.38188529  0.42531536  0.78861102    -0.05700
C1534       C  0.36796750  0.40637959  0.80733334    -0.33100
C1535       C  0.34949037  0.36080785  0.80855463     0.36100
C1536       C  0.34352000  0.33282764  0.79068839    -0.06100
C1537       C  0.35632618  0.35216186  0.77179139    -0.33000
C1538       C  0.37569260  0.39786047  0.77067359     0.36000
H1539       H  0.37206401  0.42663271  0.82138794     0.16400
O1540       O  0.33668633  0.34466600  0.82739630    -0.60500
H1541       H  0.35167434  0.33170151  0.75784463     0.16400
O1542       O  0.38886847  0.41483630  0.75205208    -0.60600
H1543       H  0.41778316  0.40204150  0.75033934     0.43400
H1544       H  0.36168084  0.32861660  0.83340782     0.43300
C1545       C  0.23157607  0.94942300  0.75038661    -0.05700
C1546       C  0.26873755  0.97372363  0.74517256    -0.33100
C1547       C  0.27532251  0.02171540  0.75137670     0.36100
C1548       C  0.24429029  0.04590324  0.76290749    -0.06100
C1549       C  0.20747221  0.02101121  0.76838597    -0.33000
C1550       C  0.20091359  0.97325195  0.76210642     0.36000
H1551       H  0.29187924  0.95610450  0.73555858     0.16400
O1552       O  0.31275096  0.04391553  0.74677541    -0.60500
H1553       H  0.18349311  0.03887839  0.77740508     0.16400
O1554       O  0.16325832  0.95112732  0.76634135    -0.60600
H1555       H  0.16758159  0.93447071  0.77959853     0.43400
H1556       H  0.30927503  0.05653226  0.73269142     0.43300
C1557       C  0.34087399  0.18754729  0.86121668    -0.05700
C1558       C  0.34277336  0.23046448  0.87288734    -0.33100
C1559       C  0.36946952  0.23399299  0.89006139     0.36100
C1560       C  0.39489362  0.19423296  0.89575472    -0.06100
C1561       C  0.39263915  0.15166511  0.88398075    -0.33000
C1562       C  0.36605396  0.14792973  0.86716386     0.36000
H1563       H  0.32390927  0.26149299  0.86857335     0.16400
O1564       O  0.37038005  0.27631322  0.90104901    -0.60500
H1565       H  0.41139763  0.12024763  0.88788949     0.16400
O1566       O  0.36491177  0.10479974  0.85671968    -0.60600
H1567       H  0.34287706  0.08527426  0.86360765     0.43400
H1568       H  0.34890388  0.27213095  0.91189397     0.43300
C1569       C  0.19197829  0.28626054  0.75900022    -0.05700
C1570       C  0.16958876  0.26631164  0.74251320    -0.33100
C1571       C  0.14302365  0.29510683  0.73041303     0.36100
C1572       C  0.13895731  0.34536993  0.73436258    -0.06100
C1573       C  0.16265561  0.36549812  0.75039096    -0.33000
C1574       C  0.18875407  0.33665208  0.76260843     0.36000
H1575       H  0.17191598  0.22791136  0.73921566     0.16400
O1576       O  0.12089043  0.27341627  0.71491577    -0.60500
H1577       H  0.16007977  0.40373249  0.75396301     0.16400
O1578       O  0.21077025  0.35834887  0.77814429    -0.60600
H1579       H  0.23789735  0.36833811  0.77196041     0.43400
H1580       H  0.09596232  0.25866611  0.72159055     0.43300
C1581       C  0.07359951  0.10763284  0.82565747    -0.05700
C1582       C  0.10732736  0.07488808  0.82708583    -0.33100
C1583       C  0.14893939  0.09150624  0.82883673     0.36100
C1584       C  0.15748859  0.14175139  0.82880495    -0.06100
C1585       C  0.12348276  0.17423735  0.82900973    -0.33000
C1586       C  0.08198209  0.15769149  0.82767618     0.36000
H1587       H  0.10164301  0.03623469  0.82599623     0.16400
O1588       O  0.18099286  0.05832918  0.82947214    -0.60500
H1589       H  0.12910484  0.21299527  0.82916466     0.16400
O1590       O  0.05025605  0.19121742  0.82656333    -0.60600
H1591       H  0.04241624  0.19794715  0.84095171     0.43400
H1592       H  0.18521624  0.04786813  0.81507820     0.43300
C1593       C  0.44823774  0.04482862  0.74753766    -0.05700
C1594       C  0.43540457  0.03012287  0.76717296    -0.33100
C1595       C  0.40793870  0.05859222  0.77889021     0.36100
C1596       C  0.39251416  0.10281957  0.77111962    -0.06100
C1597       C  0.40677783  0.11860119  0.75191508    -0.33000
C1598       C  0.43396419  0.09007751  0.74012016     0.36000
H1599       H  0.44629686  0.99605692  0.77346227     0.16400
O1600       O  0.39569216  0.04220933  0.79775709    -0.60500
H1601       H  0.39519723  0.15222469  0.74548027     0.16400
O1602       O  0.44584076  0.10678706  0.72124162    -0.60600
H1603       H  0.42371066  0.09523762  0.71173429     0.43400
H1604       H  0.41559450  0.05733949  0.80752932     0.43300
C1605       C  0.63091836  0.67574126  0.21342042    -0.05700
C1606       C  0.62573376  0.64998954  0.23175805    -0.33100
C1607       C  0.60751184  0.60378050  0.23178168     0.36100
C1608       C  0.59482979  0.58235630  0.21318344    -0.06100
C1609       C  0.59863085  0.60910058  0.19502806    -0.33000
C1610       C  0.61585024  0.65540282  0.19504860     0.36000
H1611       H  0.63697467  0.66498152  0.24605242     0.16400
O1612       O  0.60338040  0.57958172  0.24997593    -0.60500
H1613       H  0.58800584  0.59428688  0.18058889     0.16400
O1614       O  0.61862100  0.67987310  0.17683680    -0.60600
H1615       H  0.59352150  0.70114941  0.17643530     0.43400
H1616       H  0.57622095  0.59075732  0.25573136     0.43300
C1617       C  0.59356141  0.90887222  0.23395100    -0.05700
C1618       C  0.56927594  0.88779045  0.24954206    -0.33100
C1619       C  0.54419616  0.91630064  0.26239393     0.36100
C1620       C  0.54246199  0.96703879  0.25971421    -0.06100
C1621       C  0.56522798  0.98797729  0.24360220    -0.33000
C1622       C  0.59059740  0.95957852  0.23084147     0.36000
H1623       H  0.57078378  0.84911769  0.25232816     0.16400
O1624       O  0.52071203  0.89389596  0.27722857    -0.60500
H1625       H  0.56403036  0.02678804  0.24109510     0.16400
O1626       O  0.61363511  0.98231326  0.21593468    -0.60600
H1627       H  0.59542854  0.98199157  0.20363993     0.43400
H1628       H  0.54009684  0.88965204  0.28895682     0.43300
C1629       C  0.78222994  0.71302249  0.25006178    -0.05700
C1630       C  0.78743962  0.66419570  0.24447878    -0.33100
C1631       C  0.81270360  0.63301760  0.25599385     0.36100
C1632       C  0.83402811  0.65022249  0.27345340    -0.06100
C1633       C  0.82643592  0.69789958  0.28001503    -0.33000
C1634       C  0.80082636  0.72925538  0.26848940     0.36000
H1635       H  0.77254554  0.65013600  0.23081881     0.16400
O1636       O  0.81844273  0.58634418  0.24929660    -0.60500
H1637       H  0.84287831  0.71207249  0.29322795     0.16400
O1638       O  0.79575292  0.77616254  0.27497469    -0.60600
H1639       H  0.81898603  0.79457901  0.26848770     0.43400
H1640       H  0.79792861  0.56662390  0.25712263     0.43300
C1641       C  0.82675853  0.85616443  0.17549080    -0.05700
C1642       C  0.86011819  0.82320974  0.17307285    -0.33100
C1643       C  0.90170274  0.83965738  0.17100571     0.36100
C1644       C  0.91062066  0.88975536  0.17227335    -0.06100
C1645       C  0.87687138  0.92254571  0.17266414    -0.33000
C1646       C  0.83533120  0.90622835  0.17404323     0.36000
H1647       H  0.85411075  0.78454121  0.17341383     0.16400
O1648       O  0.93325177  0.80635643  0.16838673    -0.60500
H1649       H  0.88274422  0.96124111  0.17306556     0.16400
O1650       O  0.80364273  0.93979322  0.17526462    -0.60600
H1651       H  0.80270366  0.94969990  0.18982038     0.43400
H1652       H  0.94465585  0.80018726  0.18221811     0.43300
C1653       C  0.60867135  0.67719164  0.03815464    -0.05700
C1654       C  0.60416582  0.64570651  0.02142751    -0.33100
C1655       C  0.62276315  0.59966000  0.02165201     0.36100
C1656       C  0.64578400  0.58448525  0.03889756    -0.06100
C1657       C  0.65166884  0.61699884  0.05517961    -0.33000
C1658       C  0.63372009  0.66299006  0.05483893     0.36000
H1659       H  0.58473199  0.65594333  0.00853976     0.16400
O1660       O  0.61639858  0.56901559  0.00544433    -0.60500
H1661       H  0.67046673  0.60687138  0.06830632     0.16400
O1662       O  0.64017328  0.69341771  0.07114108    -0.60600
H1663       H  0.66399912  0.71451214  0.06705202     0.43400
H1664       H  0.63827237  0.57791494  0.99531458     0.43300
C1665       C  0.48717637  0.05474018  0.00028417    -0.05700
C1666       C  0.45505685  0.02883993  0.01009019    -0.33100
C1667       C  0.46111181  0.98073562  0.01600481     0.36100
C1668       C  0.49955730  0.95768101  0.01183509    -0.06100
C1669       C  0.53175623  0.98352888  0.00195497    -0.33000
C1670       C  0.52559137  0.03176015  0.99603435     0.36000
H1671       H  0.42440448  0.04525188  0.01222138     0.16400
O1672       O  0.42866839  0.95569253  0.02495295    -0.60500
H1673       H  0.56193853  0.96658328  0.99913656     0.16400
O1674       O  0.55671484  0.05576768  0.98560692    -0.60600
H1675       H  0.55239593  0.04725287  0.97103191     0.43400
H1676       H  0.42718620  0.96794363  0.03917486     0.43300
C1677       C  0.59657277  0.81218807  0.10903331    -0.05700
C1678       C  0.64065286  0.81433814  0.10760403    -0.33100
C1679       C  0.66581178  0.81354839  0.12519893     0.36100
C1680       C  0.64689457  0.81242775  0.14461469    -0.06100
C1681       C  0.60290426  0.80941446  0.14604889    -0.33000
C1682       C  0.57780656  0.80834211  0.12843550     0.36000
H1683       H  0.65560272  0.81723071  0.09277276     0.16400
O1684       O  0.70861820  0.81731937  0.12329513    -0.60500
H1685       H  0.58792913  0.80847631  0.16091855     0.16400
O1686       O  0.53490884  0.80703219  0.13040182    -0.60600
H1687       H  0.52782701  0.77225227  0.13213923     0.43400
H1688       H  0.71879392  0.78346805  0.12209076     0.43300
C1689       C  0.69784836  0.96606752  0.99365933    -0.05700
C1690       C  0.68606364  0.98115416  0.01340478    -0.33100
C1691       C  0.66064530  0.95195224  0.02585367     0.36100
C1692       C  0.64661875  0.90647915  0.01877031    -0.06100
C1693       C  0.65926346  0.89084503  0.99928313    -0.33000
C1694       C  0.68406861  0.92023887  0.98670384     0.36000
H1695       H  0.69637640  0.01592521  0.01925780     0.16400
O1696       O  0.64912619  0.96870039  0.04477092    -0.60500
H1697       H  0.64826768  0.85647204  0.99329058     0.16400
O1698       O  0.69438684  0.90361505  0.96759858    -0.60600
H1699       H  0.67112670  0.91443743  0.95860239     0.43400
H1700       H  0.66947016  0.95394345  0.05441228     0.43300
C1701       C  0.45565100  0.71698431  0.00426055    -0.05700
C1702       C  0.45752661  0.66640937  0.00676390    -0.33100
C1703       C  0.43348106  0.63542047  0.99449390     0.36100
C1704       C  0.40669109  0.65457798  0.97938162    -0.06100
C1705       C  0.40652739  0.70485443  0.97603179    -0.33000
C1706       C  0.43078222  0.73601499  0.98828993     0.36000
H1707       H  0.47720817  0.65074479  0.01854635     0.16400
O1708       O  0.43426073  0.58650473  0.99829486    -0.60500
H1709       H  0.38502130  0.72039384  0.96499625     0.16400
O1710       O  0.42730042  0.78514568  0.98557152    -0.60600
H1711       H  0.44681779  0.79300392  0.97422926     0.43400
H1712       H  0.45224324  0.57254274  0.98740849     0.43300
C1713       C  0.33057188  0.89344227  0.07701104    -0.05700
C1714       C  0.36473979  0.92554701  0.07876618    -0.33100
C1715       C  0.40624992  0.90837406  0.07919811     0.36100
C1716       C  0.41438594  0.85827593  0.07718316    -0.06100
C1717       C  0.38009172  0.82606313  0.07677555    -0.33000
C1718       C  0.33861111  0.84313153  0.07695891     0.36000
H1719       H  0.35936149  0.96432879  0.07899066     0.16400
O1720       O  0.43854222  0.94129822  0.07985658    -0.60500
H1721       H  0.38538498  0.78739929  0.07539327     0.16400
O1722       O  0.30640576  0.81032050  0.07516612    -0.60600
H1723       H  0.29868321  0.80179141  0.08939782     0.43400
H1724       H  0.44438101  0.94616352  0.09459508     0.43300
C1725       C  0.85456098  0.33077801  0.28784554    -0.05700
C1726       C  0.85364379  0.35833893  0.26973500    -0.33100
C1727       C  0.87114057  0.40499723  0.26916167     0.36100
C1728       C  0.89028337  0.42407510  0.28676967    -0.06100
C1729       C  0.89080872  0.39668019  0.30479506    -0.33000
C1730       C  0.87350075  0.35052610  0.30544127     0.36000
H1731       H  0.83869676  0.34411578  0.25612020     0.16400
O1732       O  0.87097878  0.43057684  0.25119897    -0.60500
H1733       H  0.90534564  0.41092168  0.31853090     0.16400
O1734       O  0.87515214  0.32521533  0.32346953    -0.60600
H1735       H  0.90367580  0.31081483  0.32385059     0.43400
H1736       H  0.84430465  0.44914638  0.25134881     0.43300
C1737       C  0.74751589  0.04985878  0.25936604    -0.05700
C1738       C  0.71471501  0.02045585  0.26658444    -0.33100
C1739       C  0.70971467  0.97314698  0.25937487     0.36100
C1740       C  0.73801634  0.95441066  0.24474466    -0.06100
C1741       C  0.77093063  0.98373931  0.23767213    -0.33000
C1742       C  0.77574584  0.03106828  0.24474794     0.36000
H1743       H  0.69294666  0.03411129  0.27794943     0.16400
O1744       O  0.67581688  0.94661601  0.26596269    -0.60500
H1745       H  0.79293956  0.97006455  0.22644242     0.16400
O1746       O  0.80952629  0.05761141  0.23804065    -0.60600
H1747       H  0.80017906  0.07268363  0.22506182     0.43400
H1748       H  0.68508957  0.93118998  0.27888011     0.43300
C1749       C  0.64839806  0.35150067  0.23261850    -0.05700
C1750       C  0.65683506  0.30377557  0.22624687    -0.33100
C1751       C  0.68328930  0.27344483  0.23754068     0.36100
C1752       C  0.70226255  0.29054913  0.25564744    -0.06100
C1753       C  0.69569768  0.33910754  0.26140647    -0.33000
C1754       C  0.66934863  0.36953121  0.25004344     0.36000
H1755       H  0.64143791  0.28899956  0.21285444     0.16400
O1756       O  0.68947914  0.22681834  0.23090248    -0.60500
H1757       H  0.71059112  0.35357960  0.27498899     0.16400
O1758       O  0.66241044  0.41581023  0.25691150    -0.60600
H1759       H  0.68417688  0.43591820  0.25012606     0.43400
H1760       H  0.66639660  0.20765506  0.23712868     0.43300
C1761       C  0.66262195  0.15088618  0.32785374    -0.05700
C1762       C  0.65547872  0.10141435  0.33160020    -0.33100
C1763       C  0.61456521  0.08278934  0.33257836     0.36100
C1764       C  0.57969389  0.11371427  0.32994564    -0.06100
C1765       C  0.58668998  0.16378253  0.32804586    -0.33000
C1766       C  0.62763384  0.18245108  0.32693250     0.36000
H1767       H  0.68165002  0.07641886  0.33254105     0.16400
O1768       O  0.60913115  0.03380597  0.33502302    -0.60500
H1769       H  0.56040026  0.18825763  0.32599861     0.16400
O1770       O  0.63284861  0.23123771  0.32372748    -0.60600
H1771       H  0.63713566  0.24531592  0.33751324     0.43400
H1772       H  0.60483715  0.02910996  0.34989874     0.43300
C1773       C  0.94441634  0.03258184  0.24359593    -0.05700
C1774       C  0.93346665  0.07886795  0.23633628    -0.33100
C1775       C  0.90800210  0.11009203  0.24781812     0.36100
C1776       C  0.89284457  0.09573964  0.26718485    -0.06100
C1777       C  0.90392180  0.04958854  0.27454289    -0.33000
C1778       C  0.92964000  0.01838043  0.26308537     0.36000
H1779       H  0.94440114  0.09106016  0.22152620     0.16400
O1780       O  0.89687902  0.15389016  0.23950755    -0.60500
H1781       H  0.89207976  0.03723371  0.28916703     0.16400
O1782       O  0.93922053  0.97367093  0.27096954    -0.60600
H1783       H  0.96410425  0.97910574  0.27980835     0.43400
H1784       H  0.87098644  0.14728891  0.23152861     0.43300
C1785       C  0.85024471  0.42004372  0.46290434    -0.05700
C1786       C  0.85993946  0.39722950  0.44433209    -0.33100
C1787       C  0.87879237  0.35182811  0.44382443     0.36100
C1788       C  0.88873657  0.32758983  0.46221806    -0.06100
C1789       C  0.87975267  0.35058725  0.48090134    -0.33000
C1790       C  0.86073925  0.39647144  0.48135699     0.36000
H1791       H  0.85227982  0.41421421  0.42987773     0.16400
O1792       O  0.88654904  0.33130110  0.42509538    -0.60500
H1793       H  0.88763511  0.33313785  0.49522182     0.16400
O1794       O  0.85176528  0.41718271  0.49989570    -0.60600
H1795       H  0.87669570  0.43729348  0.50323525     0.43400
H1796       H  0.91366014  0.34542683  0.42052995     0.43300
C1797       C  0.98792961  0.04362122  0.49408030    -0.05700
C1798       C  0.95786718  0.02676964  0.50813872    -0.33100
C1799       C  0.96031340  0.97986730  0.51616952     0.36100
C1800       C  0.99339410  0.94894284  0.51030016    -0.06100
C1801       C  0.02353737  0.96587264  0.49629555    -0.33000
C1802       C  0.02110662  0.01277425  0.48827405     0.36000
H1803       H  0.93144067  0.04940404  0.51238414     0.16400
O1804       O  0.93010180  0.96461675  0.52967349    -0.60500
H1805       H  0.04995014  0.94324587  0.49201887     0.16400
O1806       O  0.05131035  0.02807511  0.47476181    -0.60600
H1807       H  0.07430511  0.04123476  0.48336926     0.43400
H1808       H  0.90840218  0.94850268  0.52116726     0.43300
C1809       C  0.89382049  0.18518679  0.39402902    -0.05700
C1810       C  0.91335052  0.18988715  0.37491676    -0.33100
C1811       C  0.88932538  0.19099769  0.35698852     0.36100
C1812       C  0.84512913  0.18905043  0.35808081    -0.06100
C1813       C  0.82551720  0.18711660  0.37722590    -0.33000
C1814       C  0.84955280  0.18420003  0.39511760     0.36000
H1815       H  0.94733159  0.19070028  0.37382447     0.16400
O1816       O  0.90929643  0.19287032  0.33842987    -0.60500
H1817       H  0.79154385  0.18564108  0.37825914     0.16400
O1818       O  0.82951992  0.18098464  0.41363133    -0.60600
H1819       H  0.82239523  0.14617729  0.41525435     0.43400
H1820       H  0.91406774  0.22781922  0.33578573     0.43300
C1821       C  0.03990416  0.28479747  0.49549495    -0.05700
C1822       C  0.05597906  0.26812429  0.51420959    -0.33100
C1823       C  0.08142590  0.29780171  0.52645320     0.36100
C1824       C  0.09159622  0.34543111  0.52013469    -0.06100
C1825       C  0.07405240  0.36281801  0.50186271    -0.33000
C1826       C  0.04878091  0.33308077  0.48955839     0.36000
H1827       H  0.04926473  0.23158316  0.51933656     0.16400
O1828       O  0.09719910  0.27912944  0.54429008    -0.60500
H1829       H  0.08136360  0.39906045  0.49654931     0.16400
O1830       O  0.03274440  0.35197343  0.47181403    -0.60600
H1831       H  0.05548310  0.34832493  0.46156011     0.43400
H1832       H  0.07612044  0.28741364  0.55489032     0.43300
C1833       C  0.07418071  0.13646622  0.42399489    -0.05700
C1834       C  0.08100121  0.08622712  0.42418950    -0.33100
C1835       C  0.12188321  0.06755181  0.42448361     0.36100
C1836       C  0.15672341  0.09938362  0.42415580    -0.06100
C1837       C  0.14964123  0.14924699  0.42161333    -0.33000
C1838       C  0.10882692  0.16786755  0.42159901     0.36000
H1839       H  0.05476369  0.06140850  0.42575090     0.16400
O1840       O  0.12735228  0.01830663  0.42590299    -0.60500
H1841       H  0.17580218  0.17440121  0.42111689     0.16400
O1842       O  0.10336340  0.21711748  0.42052676    -0.60600
H1843       H  0.09726786  0.22388193  0.40594606     0.43400
H1844       H  0.12176808  0.01016997  0.44042024     0.43300
C1845       C  0.84204470  0.09537276  0.48412986    -0.05700
C1846       C  0.83777884  0.04568414  0.47959803    -0.33100
C1847       C  0.81203542  0.01541490  0.49134745     0.36100
C1848       C  0.78935778  0.03444980  0.50801509    -0.06100
C1849       C  0.79223175  0.08443884  0.51210287    -0.33000
C1850       C  0.81797213  0.11482755  0.50029283     0.36000
H1851       H  0.85581756  0.02948537  0.46733357     0.03600
O1852       O  0.81024332  0.96697897  0.48665822    -0.60500
H1853       H  0.77446828  0.10017991  0.52456959     0.16400
O1854       O  0.82061579  0.16299553  0.50532767    -0.60600
H1855       H  0.79913439  0.17926146  0.49676264     0.43400
H1856       H  0.83364374  0.95195119  0.49440491     0.43300
loop_ 
_geom_bond_atom_site_label_1 
_geom_bond_atom_site_label_2 
_geom_bond_distance 
_geom_bond_site_symmetry_2 
_ccdc_geom_bond_type 
O1          Cr19   2.019       .  S
O1            C9   1.266       .  A
O2          Cr19   1.948       .  S
O2            C3   1.257       .  A
C3            O4   1.272       .  A
C3         C1788   1.482       .  S
O4          Cr20   2.029       .  S
O5          Cr20   1.984       .  S
O5            C6   1.262       .  A
C6            O7   1.264       .  A
C6         C1845   1.490       .  S
O7          Cr21   2.000       .  S
O8          Cr21   1.974       .  S
O8            C9   1.258       .  A
C9         C1809   1.476       .  S
O10         Cr19   1.961   1_455  S
O10          C18   1.258       .  A
O11         Cr19   2.011   1_455  S
O11          C12   1.265       .  A
C12          O13   1.262   1_455  A
C12        C1821   1.492       .  S
O13         Cr20   1.984       .  S
O14         Cr20   2.021       .  S
O14          C15   1.271       .  A
C15          O16   1.259       .  A
C15        C1797   1.476       .  S
O16         Cr21   1.964       .  S
O17         Cr21   2.016       .  S
O17          C18   1.268   1_655  A
C18        C1833   1.477       .  S
Cr19         O22   1.766       .  S
Cr20         O22   1.771       .  S
Cr21         O22   1.765       .  S
O23         Cr41   2.023       .  S
O23          C31   1.268       .  A
O24         Cr41   1.950       .  S
O24          C25   1.258       .  A
C25          O26   1.269       .  A
C25        C1725   1.473       .  S
O26         Cr42   2.019       .  S
O27         Cr42   1.978       .  S
O27          C28   1.261       .  A
C28          O29   1.267       .  A
C28        C1776   1.490       .  S
O29         Cr43   2.019       .  S
O30         Cr43   1.970       .  S
O30          C31   1.257       .  A
C31        C1812   1.472       .  S
O32         Cr41   1.965       .  S
O32          C40   1.258       .  A
O33         Cr41   2.015       .  S
O33          C34   1.267       .  A
C34          O35   1.259       .  A
C34        C1752   1.486       .  S
O35         Cr42   1.972       .  S
O36         Cr42   2.009       .  S
O36          C37   1.268       .  A
C37          O38   1.258       .  A
C37        C1737   1.471       .  S
O38         Cr43   1.960       .  S
O39         Cr43   2.024       .  S
O39          C40   1.271       .  A
C40        C1761   1.488       .  S
Cr41         O44   1.766       .  S
Cr42         O44   1.767       .  S
Cr43         O44   1.764       .  S
O45         Cr63   1.973       .  S
O45          C53   1.261       .  A
O46         Cr63   2.024       .  S
O46          C47   1.270       .  A
C47          O48   1.259       .  A
C47        C1701   1.488       .  S
O48         Cr64   1.976       .  S
O49         Cr64   2.026       .  S
O49          C50   1.270       .  A
C50          O51   1.255       .  A
C50        C1668   1.465       .  S
O51         Cr65   1.953       .  S
O52         Cr65   2.021       .  S
O52          C53   1.270       .  A
C53        C1716   1.490       .  S
O54         Cr63   2.031       .  S
O54          C62   1.270       .  A
O55         Cr63   1.955       .  S
O55          C56   1.259       .  A
C56          O57   1.271       .  A
C56        C1653   1.472       .  S
O57         Cr64   2.024       .  S
O58         Cr64   1.969       .  S
O58          C59   1.259       .  A
C59          O60   1.266       .  A
C59        C1692   1.483       .  S
O60         Cr65   2.017       .  S
O61         Cr65   1.971       .  S
O61          C62   1.258       .  A
C62        C1677   1.480       .  S
Cr63         O66   1.764       .  S
Cr64         O66   1.768       .  S
Cr65         O66   1.761       .  S
O67         Cr85   1.978       .  S
O67          C75   1.261       .  A
O68         Cr85   2.021       .  S
O68          C69   1.269       .  A
C69          O70   1.259       .  A
C69        C1629   1.493       .  S
O70         Cr86   1.979       .  S
O71         Cr86   2.010       .  S
O71          C72   1.269       .  A
C72          O73   1.261       .  A
C72        C1740   1.471       .  S
O73         Cr87   1.960       .  S
O74         Cr87   2.016       .  S
O74          C75   1.268       .  A
C75        C1641   1.486       .  S
O76         Cr85   2.028       .  S
O76          C84   1.269       .  A
O77         Cr85   1.949       .  S
O77          C78   1.257       .  A
C78          O79   1.269       .  A
C78        C1605   1.474       .  S
O79         Cr86   2.016       .  S
O80         Cr86   1.982       .  S
O80          C81   1.261       .  A
C81          O82   1.262       .  A
C81        C1617   1.490       .  S
O82         Cr87   2.004       .  S
O83         Cr87   1.972       .  S
O83          C84   1.258       .  A
C84        C1680   1.477       .  S
Cr85         O88   1.767       .  S
Cr86         O88   1.773       .  S
Cr87         O88   1.763       .  S
O89        Cr107   2.030       .  S
O89          C97   1.270       .  A
O90        Cr107   1.948       .  S
O90          C91   1.257       .  A
C91          O92   1.272       .  A
C91        C1536   1.482       .  S
O92        Cr108   2.030       .  S
O93        Cr108   1.976       .  S
O93          C94   1.261       .  A
C94          O95   1.268       .  A
C94        C1596   1.487       .  S
O95        Cr109   2.019       .  S
O96        Cr109   1.961       .  S
O96          C97   1.257       .  A
C97        C1557   1.490       .  S
O98        Cr107   1.966       .  S
O98         C106   1.259       .  A
O99        Cr107   2.018       .  S
O99         C100   1.268       .  A
C100        O101   1.262       .  A
C100       C1569   1.491       .  S
O101       Cr108   1.984       .  S
O102       Cr108   2.031       .  S
O102        C103   1.270       .  A
C103        O104   1.253       .  A
C103       C1548   1.471       .  S
O104       Cr109   1.951       .  S
O105       Cr109   2.019       .  S
O105        C106   1.269       .  A
C106       C1584   1.488       .  S
Cr107       O110   1.766       .  S
Cr108       O110   1.773       .  S
Cr109       O110   1.762       .  S
O111       Cr129   2.009       .  S
O111        C119   1.263       .  A
O112       Cr129   1.977       .  S
O112        C113   1.259       .  A
C113        O114   1.264       .  A
C113       C1485   1.469       .  S
O114       Cr130   1.993       .  S
O115       Cr130   1.983       .  S
O115        C116   1.262       .  A
C116        O117   1.268       .  A
C116       C1521   1.478       .  S
O117       Cr131   1.998       .  S
O118       Cr131   1.981       .  S
O118        C119   1.260       .  A
C119       C1560   1.493       .  S
O120       Cr129   2.010       .  S
O120        C128   1.265       .  A
O121       Cr129   1.996       .  S
O121        C122   1.266       .  A
C122        O123   1.261       .  A
C122       C1497   1.481       .  S
O123       Cr130   1.989       .  S
O124       Cr130   2.001       .  S
O124        C125   1.264       .  A
C125        O126   1.253       .  A
C125       C1665   1.455   1_556  S
O126       Cr131   1.960       .  S
O127       Cr131   1.973       .  S
O127        C128   1.260       .  A
C128       C1509   1.484       .  S
Cr129       O132   1.784       .  S
Cr130       O132   1.775       .  S
Cr131       O132   1.781       .  S
O133       Cr151   2.007       .  S
O133        C141   1.265       .  A
O134       Cr151   1.992       .  S
O134        C135   1.264       .  A
C135        O136   1.259       .  A
C135       C1464   1.473       .  S
O136       Cr152   1.983       .  S
O137       Cr152   1.997       .  S
O137        C138   1.265       .  A
C138        O139   1.257       .  A
C138       C1545   1.456       .  S
O139       Cr153   1.970       .  S
O140       Cr153   1.975       .  S
O140        C141   1.259       .  A
C141       C1473   1.488       .  S
O142       Cr151   1.993       .  S
O142        C150   1.259       .  A
O143       Cr151   1.975       .  S
O143        C144   1.260       .  A
C144        O145   1.265       .  A
C144       C1428   1.472       .  S
O145       Cr152   1.990       .  S
O146       Cr152   1.975       .  S
O146        C147   1.260       .  A
C147        O148   1.268       .  A
C147       C1452   1.477       .  S
O148       Cr153   1.999       .  S
O149       Cr153   2.000       .  S
O149        C150   1.262       .  A
C150       C1437   1.480       .  S
Cr151       O154   1.780       .  S
Cr152       O154   1.775       .  S
Cr153       O154   1.781       .  S
O155       Cr173   1.968   1_655  S
O155        C163   1.259       .  A
O156       Cr173   2.021   1_655  S
O156        C157   1.268       .  A
C157        O158   1.260       .  A
C157       C1404   1.487       .  S
O158       Cr174   1.973   1_655  S
O159       Cr174   2.018       .  S
O159        C160   1.270       .  A
C160        O161   1.258   1_455  A
C160       C1800   1.476   1_455  S
O161       Cr175   1.965   1_655  S
O162       Cr175   2.018   1_655  S
O162        C163   1.268       .  A
C163       C1413   1.487       .  S
O164       Cr173   2.027       .  S
O164        C172   1.270       .  A
O165       Cr173   1.948       .  S
O165        C166   1.256       .  A
C166        O167   1.269       .  A
C166       C1380   1.474       .  S
O167       Cr174   2.023       .  S
O168       Cr174   1.974       .  S
O168        C169   1.260       .  A
C169        O170   1.267       .  A
C169       C1389   1.485       .  S
O170       Cr175   2.011       .  S
O171       Cr175   1.967       .  S
O171        C172   1.258       .  A
C172       C1440   1.493       .  S
Cr173       O176   1.766       .  S
Cr174       O176   1.769       .  S
Cr175       O176   1.763       .  S
O177       Cr195   1.978       .  S
O177        C185   1.261       .  A
O178       Cr195   2.023   1_545  S
O178        C179   1.270       .  A
C179        O180   1.259   1_545  A
C179       C1524   1.488       .  S
O180       Cr196   1.976       .  S
O181       Cr196   2.032       .  S
O181        C182   1.271       .  A
C182        O183   1.252       .  A
C182       C1341   1.475       .  S
O183       Cr197   1.944       .  S
O184       Cr197   2.016       .  S
O184        C185   1.268       .  A
C185       C1713   1.488       .  S
O186       Cr195   2.029       .  S
O186        C194   1.271       .  A
O187       Cr195   1.953   1_545  S
O187        C188   1.258       .  A
C188        O189   1.271       .  A
C188       C1329   1.475       .  S
O189       Cr196   2.030   1_545  S
O190       Cr196   1.971       .  S
O190        C191   1.259       .  A
C191        O192   1.268       .  A
C191       C1368   1.488       .  S
O192       Cr197   2.022       .  S
O193       Cr197   1.954       .  S
O193        C194   1.255       .  A
C194       C1353   1.468       .  S
Cr195       O198   1.763       .  S
Cr196       O198   1.770       .  S
Cr197       O198   1.762       .  S
O199       Cr217   1.968   1_655  S
O199        C207   1.259       .  A
O200       Cr217   2.020   1_645  S
O200        C201   1.269       .  A
C201        O202   1.260   1_545  A
C201       C1773   1.494       .  S
O202       Cr218   1.978   1_655  S
O203       Cr218   2.019       .  S
O203        C204   1.269       .  A
C204        O205   1.253   1_455  A
C204       C1305   1.465   1_455  S
O205       Cr219   1.952   1_655  S
O206       Cr219   2.017   1_655  S
O206        C207   1.267       .  A
C207       C1644   1.487       .  S
O208       Cr217   2.025       .  S
O208        C216   1.270       .  A
O209       Cr217   1.951   1_545  S
O209        C210   1.258       .  A
C210        O211   1.270       .  A
C210       C1296   1.479       .  S
O211       Cr218   2.023   1_545  S
O212       Cr218   1.978       .  S
O212        C213   1.262       .  A
C213        O214   1.268       .  A
C213       C1320   1.490       .  S
O214       Cr219   2.020       .  S
O215       Cr219   1.958       .  S
O215        C216   1.258       .  A
C216       C1356   1.486       .  S
Cr217       O220   1.764       .  S
Cr218       O220   1.770       .  S
Cr219       O220   1.765       .  S
O221       Cr239   1.999       .  S
O221        C229   1.261       .  A
O222       Cr239   1.968       .  S
O222        C223   1.260       .  A
C223        O224   1.263       .  A
C223       C1728   1.466       .  S
O224       Cr240   1.986       .  S
O225       Cr240   1.986       .  S
O225        C226   1.262       .  A
C226        O227   1.268       .  A
C226       C1632   1.483       .  S
O227       Cr241   2.000       .  S
O228       Cr241   1.980       .  S
O228        C229   1.258       .  A
C229       C1257   1.488       .  S
O230       Cr239   2.003   1_455  S
O230        C238   1.265       .  A
O231       Cr239   1.999   1_455  S
O231        C232   1.265       .  A
C232        O233   1.260   1_455  A
C232       C1269   1.479       .  S
O233       Cr240   1.987       .  S
O234       Cr240   1.994       .  S
O234        C235   1.263       .  A
C235        O236   1.253       .  A
C235       C1308   1.448       .  S
O236       Cr241   1.957       .  S
O237       Cr241   1.975   1_455  S
O237        C238   1.260       .  A
C238       C1284   1.481       .  S
Cr239       O242   1.782       .  S
Cr240       O242   1.778       .  S
Cr241       O242   1.781       .  S
O243       Cr261   2.023       .  S
O243        C251   1.268       .  A
O244       Cr261   1.954       .  S
O244        C245   1.259       .  A
C245        O246   1.269       .  A
C245       C1785   1.481       .  S
O246       Cr262   2.023       .  S
O247       Cr262   1.979       .  S
O247        C248   1.262       .  A
C248        O249   1.266       .  A
C248       C1401   1.489       .  S
O249       Cr263   2.008       .  S
O250       Cr263   1.961       .  S
O250        C251   1.258       .  A
C251       C1260   1.486       .  S
O252       Cr261   1.970       .  S
O252        C260   1.258       .  A
O253       Cr261   2.013       .  S
O253        C254   1.267       .  A
C254        O255   1.262       .  A
C254       C1233   1.490       .  S
O255       Cr262   1.979       .  S
O256       Cr262   2.019       .  S
O256        C257   1.269       .  A
C257        O258   1.258       .  A
C257       C1221   1.479       .  S
O258       Cr263   1.962       .  S
O259       Cr263   2.016       .  S
O259        C260   1.268       .  A
C260       C1245   1.487       .  S
Cr261       O264   1.767       .  S
Cr262       O264   1.771       .  S
Cr263       O264   1.765       .  S
O265       Cr283   1.962       .  S
O265        C273   1.258       .  A
O266       Cr283   2.017   1_545  S
O266        C267   1.268       .  A
C267        O268   1.262   1_545  A
C267       C1593   1.493       .  S
O268       Cr284   1.981       .  S
O269       Cr284   2.020       .  S
O269        C270   1.269       .  A
C270        O271   1.255       .  A
C270       C1185   1.475       .  S
O271       Cr285   1.957       .  S
O272       Cr285   2.024       .  S
O272        C273   1.270       .  A
C273       C1476   1.489       .  S
O274       Cr283   2.029       .  S
O274        C282   1.269       .  A
O275       Cr283   1.956   1_545  S
O275        C276   1.259       .  A
C276        O277   1.271       .  A
C276       C1173   1.477       .  S
O277       Cr284   2.025   1_545  S
O278       Cr284   1.980       .  S
O278        C279   1.262       .  A
C279        O280   1.268       .  A
C279       C1212   1.491       .  S
O280       Cr285   2.013       .  S
O281       Cr285   1.973       .  S
O281        C282   1.257       .  A
C282       C1197   1.481       .  S
Cr283       O286   1.764       .  S
Cr284       O286   1.770       .  S
Cr285       O286   1.764       .  S
O287       Cr305   1.972       .  S
O287        C295   1.260       .  A
O288       Cr305   2.018   1_545  S
O288        C289   1.267       .  A
C289        O290   1.259   1_545  A
C289       C1848   1.487       .  S
O290       Cr306   1.974       .  S
O291       Cr306   2.014       .  S
O291        C292   1.269       .  A
C292        O293   1.260       .  A
C292       C1224   1.477       .  S
O293       Cr307   1.968       .  S
O294       Cr307   2.016       .  S
O294        C295   1.268       .  A
C295       C1416   1.484       .  S
O296       Cr305   2.027       .  S
O296        C304   1.268       .  A
O297       Cr305   1.956   1_545  S
O297        C298   1.260       .  A
C298        O299   1.270       .  A
C298       C1149   1.481       .  S
O299       Cr306   2.022   1_545  S
O300       Cr306   1.976       .  S
O300        C301   1.260       .  A
C301        O302   1.265       .  A
C301       C1161   1.488       .  S
O302       Cr307   2.007       .  S
O303       Cr307   1.979       .  S
O303        C304   1.259       .  A
C304       C1200   1.481       .  S
Cr305       O308   1.768       .  S
Cr306       O308   1.770       .  S
Cr307       O308   1.765       .  S
O309       Cr327   2.032       .  S
O309        C317   1.272       .  A
O310       Cr327   1.947       .  S
O310        C311   1.257       .  A
C311        O312   1.271       .  A
C311       C1533   1.480       .  S
O312       Cr328   2.030       .  S
O313       Cr328   1.974       .  S
O313        C314   1.261       .  A
C314        O315   1.266       .  A
C314       C1461   1.482       .  S
O315       Cr329   2.012       .  S
O316       Cr329   1.964       .  S
O316        C317   1.260       .  A
C317       C1113   1.491       .  S
O318       Cr327   1.972       .  S
O318        C326   1.259       .  A
O319       Cr327   2.030       .  S
O319        C320   1.270       .  A
C320        O321   1.257       .  A
C320       C1128   1.488       .  S
O321       Cr328   1.969       .  S
O322       Cr328   2.016       .  S
O322        C323   1.270       .  A
C323        O324   1.258       .  A
C323       C1188   1.474       .  S
O324       Cr329   1.960       .  S
O325       Cr329   2.014       .  S
O325        C326   1.267       .  A
C326       C1137   1.485       .  S
Cr327       O330   1.765       .  S
Cr328       O330   1.771       .  S
Cr329       O330   1.765       .  S
O331       Cr349   2.002       .  S
O331        C339   1.262       .  A
O332       Cr349   1.989       .  S
O332        C333   1.263       .  A
C333        O334   1.264       .  A
C333       C1488   1.472       .  S
O334       Cr350   1.984       .  S
O335       Cr350   1.984       .  S
O335        C336   1.261       .  A
C336        O337   1.267       .  A
C336       C1704   1.476       .  S
O337       Cr351   1.995       .  S
O338       Cr351   1.984       .  S
O338        C339   1.259       .  A
C339       C1116   1.489       .  S
O340       Cr349   2.016       .  S
O340        C348   1.267       .  A
O341       Cr349   1.996       .  S
O341        C342   1.265       .  A
C342        O343   1.258       .  A
C342       C1089   1.477       .  S
O343       Cr350   1.983       .  S
O344       Cr350   1.996       .  S
O344        C345   1.263       .  A
C345        O346   1.254       .  A
C345       C1344   1.452   1_556  S
O346       Cr351   1.959       .  S
O347       Cr351   1.972       .  S
O347        C348   1.259       .  A
C348       C1104   1.490       .  S
Cr349       O352   1.783       .  S
Cr350       O352   1.777       .  S
Cr351       O352   1.781       .  S
O353       Cr371   1.965       .  S
O353        C361   1.257       .  A
O354       Cr371   2.013       .  S
O354        C355   1.266       .  A
C355        O356   1.259       .  A
C355       C1065   1.482       .  S
O356       Cr372   1.975       .  S
O357       Cr372   2.012       .  S
O357        C358   1.268       .  A
C358        O359   1.257       .  A
C358       C1041   1.474       .  S
O359       Cr373   1.960       .  S
O360       Cr373   2.026       .  S
O360        C361   1.271       .  A
C361       C1080   1.490       .  S
O362       Cr371   2.029       .  S
O362        C370   1.269       .  A
O363       Cr371   1.955       .  S
O363        C364   1.260       .  A
C364        O365   1.271       .  A
C364       C1656   1.476       .  S
O365       Cr372   2.023       .  S
O366       Cr372   1.977       .  S
O366        C367   1.262       .  A
C367        O368   1.267       .  A
C367       C1500   1.485       .  S
O368       Cr373   2.012       .  S
O369       Cr373   1.974       .  S
O369        C370   1.257       .  A
C370       C1053   1.478       .  S
Cr371       O374   1.769       .  S
Cr372       O374   1.772       .  S
Cr373       O374   1.764       .  S
O375       Cr393   1.962       .  S
O375        C383   1.258       .  A
O376       Cr393   2.022       .  S
O376        C377   1.269       .  A
C377        O378   1.260       .  A
C377       C1017   1.489       .  S
O378       Cr394   1.980       .  S
O379       Cr394   2.006       .  S
O379        C380   1.266       .  A
C380        O381   1.259       .  A
C380       C1005   1.471       .  S
O381       Cr395   1.964       .  S
O382       Cr395   2.021       .  S
O382        C383   1.269       .  A
C383       C1029   1.488       .  S
O384       Cr393   2.031       .  S
O384        C392   1.270       .  A
O385       Cr393   1.954       .  S
O385        C386   1.258       .  A
C386        O387   1.267       .  A
C386       C1608   1.476       .  S
O387       Cr394   2.013       .  S
O388       Cr394   1.981       .  S
O388        C389   1.262       .  A
C389        O390   1.266       .  A
C389       C1749   1.486       .  S
O390       Cr395   2.004       .  S
O391       Cr395   1.972       .  S
O391        C392   1.257       .  A
C392       C1056   1.488       .  S
Cr393       O396   1.766       .  S
Cr394       O396   1.771       .  S
Cr395       O396   1.765       .  S
O397       Cr415   2.024       .  S
O397        C405   1.269       .  A
O398       Cr415   1.944   1_565  S
O398        C399   1.255       .  A
C399        O400   1.270       .  A
C399        C960   1.474       .  S
O400       Cr416   2.022   1_565  S
O401       Cr416   1.978       .  S
O401        C402   1.261       .  A
C402        O403   1.266       .  A
C402        C996   1.487       .  S
O403       Cr417   2.006       .  S
O404       Cr417   1.969       .  S
O404        C405   1.257       .  A
C405        C981   1.478       .  S
O406       Cr415   1.959       .  S
O406        C414   1.257       .  A
O407       Cr415   2.022   1_565  S
O407        C408   1.269       .  A
C408        O409   1.258   1_565  A
C408       C1392   1.489       .  S
O409       Cr416   1.968       .  S
O410       Cr416   2.009       .  S
O410        C411   1.269       .  A
C411        O412   1.259       .  A
C411        C969   1.477       .  S
O412       Cr417   1.966       .  S
O413       Cr417   2.018       .  S
O413        C414   1.269       .  A
C414       C1836   1.480       .  S
Cr415       O418   1.765       .  S
Cr416       O418   1.765       .  S
Cr417       O418   1.762       .  S
O419       Cr437   2.027       .  S
O419        C427   1.269       .  A
O420       Cr437   1.959   1_565  S
O420        C421   1.259       .  A
C421        O422   1.271       .  A
C421        C936   1.484       .  S
O422       Cr438   2.023   1_565  S
O423       Cr438   1.983       .  S
O423        C424   1.263       .  A
C424        O425   1.265       .  A
C424        C948   1.490       .  S
O425       Cr439   2.005       .  S
O426       Cr439   1.967       .  S
O426        C427   1.257       .  A
C427        C984   1.474       .  S
O428       Cr437   1.968       .  S
O428        C436   1.258       .  A
O429       Cr437   2.016   1_565  S
O429        C430   1.267       .  A
C430        O431   1.259   1_565  A
C430       C1620   1.485       .  S
O431       Cr438   1.976       .  S
O432       Cr438   2.012       .  S
O432        C433   1.268       .  A
C433        O434   1.258       .  A
C433       C1008   1.471       .  S
O434       Cr439   1.960       .  S
O435       Cr439   2.018       .  S
O435        C436   1.268       .  A
C436       C1764   1.483       .  S
Cr437       O440   1.769       .  S
Cr438       O440   1.770       .  S
Cr439       O440   1.766       .  S
O441       Cr459   1.960   1_655  S
O441        C449   1.257       .  A
O442       Cr459   2.019   1_655  S
O442        C443   1.269       .  A
C443        O444   1.260       .  A
C443        C912   1.489       .  S
O444       Cr460   1.975   1_655  S
O445       Cr460   2.010       .  S
O445        C446   1.268       .  A
C446        O447   1.255   1_455  A
C446        C888   1.470   1_455  S
O447       Cr461   1.955   1_655  S
O448       Cr461   2.022   1_655  S
O448        C449   1.270       .  A
C449        C921   1.483       .  S
O450       Cr459   2.026       .  S
O450        C458   1.268       .  A
O451       Cr459   1.952       .  S
O451        C452   1.258       .  A
C452        O453   1.269       .  A
C452       C1425   1.469       .  S
O453       Cr460   2.021       .  S
O454       Cr460   1.981       .  S
O454        C455   1.264       .  A
C455        O456   1.267       .  A
C455       C1572   1.494       .  S
O456       Cr461   2.017       .  S
O457       Cr461   1.969       .  S
O457        C458   1.257       .  A
C458        C900   1.475       .  S
Cr459       O462   1.764       .  S
Cr460       O462   1.768       .  S
Cr461       O462   1.763       .  S
O463       Cr481   1.964       .  S
O463        C471   1.259       .  A
O464       Cr481   2.011       .  S
O464        C465   1.266       .  A
C465        O466   1.261       .  A
C465        C864   1.491       .  S
O466       Cr482   1.983       .  S
O467       Cr482   2.009       .  S
O467        C468   1.268       .  A
C468        O469   1.259       .  A
C468        C972   1.476       .  S
O469       Cr483   1.962       .  S
O470       Cr483   2.020       .  S
O470        C471   1.270       .  A
C471        C873   1.483       .  S
O472       Cr481   2.021       .  S
O472        C480   1.266       .  A
O473       Cr481   1.951       .  S
O473        C474   1.260       .  A
C474        O475   1.269       .  A
C474       C1377   1.469       .  S
O475       Cr482   2.017       .  S
O476       Cr482   1.984       .  S
O476        C477   1.263       .  A
C477        O478   1.264       .  A
C477       C1824   1.490       .  S
O478       Cr483   2.003       .  S
O479       Cr483   1.975       .  S
O479        C480   1.257       .  A
C480        C897   1.477       .  S
Cr481       O484   1.769       .  S
Cr482       O484   1.772       .  S
Cr483       O484   1.765       .  S
O485       Cr503   2.033       .  S
O485        C493   1.273       .  A
O486       Cr503   1.953   1_565  S
O486        C487   1.257       .  A
C487        O488   1.270       .  A
C487        C825   1.474       .  S
O488       Cr504   2.025   1_565  S
O489       Cr504   1.972       .  S
O489        C490   1.260       .  A
C490        O491   1.264       .  A
C490        C849   1.476       .  S
O491       Cr505   2.003       .  S
O492       Cr505   1.957       .  S
O492        C493   1.258       .  A
C493        C837   1.481       .  S
O494       Cr503   1.984   1_455  S
O494        C502   1.261       .  A
O495       Cr503   2.028   1_565  S
O495        C496   1.271   1_655  A
C496        O497   1.256   1_465  A
C496       C1449   1.487       .  S
O497       Cr504   1.965       .  S
O498       Cr504   2.014       .  S
O498        C499   1.269       .  A
C499        O500   1.257       .  A
C499        C885   1.470       .  S
O500       Cr505   1.956       .  S
O501       Cr505   2.008       .  S
O501        C502   1.265   1_655  A
C502       C1581   1.488       .  S
Cr503       O506   1.764       .  S
Cr504       O506   1.773       .  S
Cr505       O506   1.763       .  S
O507       Cr525   2.019       .  S
O507        C515   1.269       .  A
O508       Cr525   1.954   1_565  S
O508        C509   1.256       .  A
C509        O510   1.269       .  A
C509        C801   1.477       .  S
O510       Cr526   2.023   1_565  S
O511       Cr526   1.974       .  S
O511        C512   1.262       .  A
C512        O513   1.271       .  A
C512        C813   1.492       .  S
O513       Cr527   2.025       .  S
O514       Cr527   1.966       .  S
O514        C515   1.259       .  A
C515        C840   1.479       .  S
O516       Cr525   1.960       .  S
O516        C524   1.256       .  A
O517       Cr525   2.016   1_565  S
O517        C518   1.268       .  A
C518        O519   1.260   1_565  A
C518       C1689   1.489       .  S
O519       Cr526   1.974       .  S
O520       Cr526   2.015       .  S
O520        C521   1.268       .  A
C521        O522   1.255       .  A
C521       C1044   1.475       .  S
O522       Cr527   1.959       .  S
O523       Cr527   2.022       .  S
O523        C524   1.269       .  A
C524       C1512   1.487       .  S
Cr525       O528   1.766       .  S
Cr526       O528   1.772       .  S
Cr527       O528   1.769       .  S
O529       Cr547   2.023       .  S
O529        C537   1.270       .  A
O530       Cr547   1.959       .  S
O530        C531   1.257       .  A
C531        O532   1.268       .  A
C531        C804   1.475       .  S
O532       Cr548   2.022       .  S
O533       Cr548   1.974       .  S
O533        C534   1.262       .  A
C534        O535   1.267       .  A
C534       C1068   1.486       .  S
O535       Cr549   2.013       .  S
O536       Cr549   1.956       .  S
O536        C537   1.256       .  A
C537        C789   1.478       .  S
O538       Cr547   1.970   1_455  S
O538        C546   1.258       .  A
O539       Cr547   2.023       .  S
O539        C540   1.270   1_655  A
C540        O541   1.261   1_455  A
C540       C1365   1.489       .  S
O541       Cr548   1.970       .  S
O542       Cr548   2.020       .  S
O542        C543   1.269       .  A
C543        O544   1.256   1_655  A
C543        C780   1.482       .  S
O544       Cr549   1.961   1_455  S
O545       Cr549   2.017   1_455  S
O545        C546   1.268       .  A
C546       C1101   1.491       .  S
Cr547       O550   1.765       .  S
Cr548       O550   1.769       .  S
Cr549       O550   1.767       .  S
O551       Cr569   2.028       .  S
O551        C559   1.271       .  A
O552       Cr569   1.958       .  S
O552        C553   1.260       .  A
C553        O554   1.269       .  A
C553        C828   1.477       .  S
O554       Cr570   2.020       .  S
O555       Cr570   1.976       .  S
O555        C556   1.261       .  A
C556        O557   1.268       .  A
C556        C909   1.489       .  S
O557       Cr571   2.018       .  S
O558       Cr571   1.951       .  S
O558        C559   1.256       .  A
C559        C792   1.477       .  S
O560       Cr569   1.972       .  S
O560        C568   1.258       .  A
O561       Cr569   2.018       .  S
O561        C562   1.269       .  A
C562        O563   1.262       .  A
C562       C1209   1.486       .  S
O563       Cr570   1.978       .  S
O564       Cr570   2.025       .  S
O564        C565   1.269       .  A
C565        O566   1.252       .  A
C565        C768   1.476       .  S
O566       Cr571   1.949       .  S
O567       Cr571   2.011       .  S
O567        C568   1.266       .  A
C568       C1140   1.483       .  S
Cr569       O572   1.767       .  S
Cr570       O572   1.771       .  S
Cr571       O572   1.765       .  S
O573       Cr591   1.970   1_655  S
O573        C581   1.258       .  A
O574       Cr591   2.028   1_655  S
O574        C575   1.270       .  A
C575        O576   1.259       .  A
C575        C816   1.492       .  S
O576       Cr592   1.972   1_655  S
O577       Cr592   2.020       .  S
O577        C578   1.269       .  A
C578        O579   1.256   1_455  A
C578        C777   1.480   1_455  S
O579       Cr593   1.960   1_655  S
O580       Cr593   2.018   1_655  S
O580        C581   1.269       .  A
C581       C1077   1.487       .  S
O582       Cr591   2.035       .  S
O582        C590   1.272       .  A
O583       Cr591   1.953       .  S
O583        C584   1.259       .  A
C584        O585   1.271       .  A
C584       C1332   1.478       .  S
O585       Cr592   2.028       .  S
O586       Cr592   1.973       .  S
O586        C587   1.261       .  A
C587        O588   1.268       .  A
C587       C1092   1.482       .  S
O588       Cr593   2.015       .  S
O589       Cr593   1.966       .  S
O589        C590   1.258       .  A
C590        C753   1.492       .  S
Cr591       O594   1.769       .  S
Cr592       O594   1.773       .  S
Cr593       O594   1.766       .  S
O595       Cr613   1.974       .  S
O595        C603   1.259       .  A
O596       Cr613   2.024       .  S
O596        C597   1.267       .  A
C597        O598   1.258       .  A
C597        C945   1.489       .  S
O598       Cr614   1.972       .  S
O599       Cr614   2.015       .  S
O599        C600   1.268       .  A
C600        O601   1.257       .  A
C600        C741   1.477       .  S
O601       Cr615   1.960       .  S
O602       Cr615   2.013       .  S
O602        C603   1.267       .  A
C603       C1032   1.485       .  S
O604       Cr613   2.026       .  S
O604        C612   1.270       .  A
O605       Cr613   1.943       .  S
O605        C606   1.256       .  A
C606        O607   1.272       .  A
C606       C1293   1.480       .  S
O607       Cr614   2.033       .  S
O608       Cr614   1.981       .  S
O608        C609   1.264       .  A
C609        O610   1.267       .  A
C609       C1272   1.490       .  S
O610       Cr615   2.011       .  S
O611       Cr615   1.971       .  S
O611        C612   1.259       .  A
C612        C756   1.480       .  S
Cr613       O616   1.768       .  S
Cr614       O616   1.775       .  S
Cr615       O616   1.765       .  S
O617       Cr635   2.023       .  S
O617        C625   1.267       .  A
O618       Cr635   1.955       .  S
O618        C619   1.258       .  A
C619        O620   1.271       .  A
C619        C933   1.482       .  S
O620       Cr636   2.028       .  S
O621       Cr636   1.980       .  S
O621        C622   1.263       .  A
C622        O623   1.268       .  A
C622       C1020   1.494       .  S
O623       Cr637   2.018       .  S
O624       Cr637   1.966       .  S
O624        C625   1.257       .  A
C625        C729   1.473       .  S
O626       Cr635   1.961       .  S
O626        C634   1.258       .  A
O627       Cr635   2.019       .  S
O627        C628   1.268       .  A
C628        O629   1.261       .  A
C628       C1317   1.493       .  S
O629       Cr636   1.979       .  S
O630       Cr636   2.016       .  S
O630        C631   1.268       .  A
C631        O632   1.258       .  A
C631        C744   1.478       .  S
O632       Cr637   1.959       .  S
O633       Cr637   2.023       .  S
O633        C634   1.270       .  A
C634       C1281   1.484       .  S
Cr635       O638   1.766       .  S
Cr636       O638   1.768       .  S
Cr637       O638   1.764       .  S
O639       Cr657   2.021       .  S
O639        C647   1.268       .  A
O640       Cr657   1.956       .  S
O640        C641   1.260       .  A
C641        O642   1.268       .  A
C641        C957   1.476       .  S
O642       Cr658   2.014       .  S
O643       Cr658   1.983       .  S
O643        C644   1.263       .  A
C644        O645   1.265       .  A
C644        C861   1.489       .  S
O645       Cr659   2.005       .  S
O646       Cr659   1.970       .  S
O646        C647   1.257       .  A
C647        C732   1.474       .  S
O648       Cr657   1.968       .  S
O648        C656   1.258       .  A
O649       Cr657   2.017       .  S
O649        C650   1.267       .  A
C650        O651   1.259       .  A
C650       C1164   1.487       .  S
O651       Cr658   1.972       .  S
O652       Cr658   2.003       .  S
O652        C653   1.266       .  A
C653        O654   1.259       .  A
C653        C720   1.474       .  S
O654       Cr659   1.962       .  S
O655       Cr659   2.015       .  S
O655        C656   1.268       .  A
C656       C1248   1.482       .  S
Cr657       O660   1.768       .  S
Cr658       O660   1.767       .  S
Cr659       O660   1.764       .  S
O661       Cr679   2.002       .  S
O661        C669   1.263       .  A
O662       Cr679   1.987       .  S
O662        C663   1.262       .  A
C663        O664   1.257       .  A
C663        C852   1.466       .  S
O664       Cr680   1.975       .  S
O665       Cr680   1.997       .  S
O665        C666   1.264       .  A
C666        O667   1.254       .  A
C666        C765   1.453       .  S
O667       Cr681   1.957       .  S
O668       Cr681   1.975       .  S
O668        C669   1.258       .  A
C669        C924   1.483       .  S
O670       Cr679   1.987       .  S
O670        C678   1.259       .  A
O671       Cr679   1.976       .  S
O671        C672   1.261       .  A
C672        O673   1.266       .  A
C672       C1176   1.476       .  S
O673       Cr680   1.993       .  S
O674       Cr680   1.978       .  S
O674        C675   1.260       .  A
C675        O676   1.269       .  A
C675       C1125   1.478       .  S
O676       Cr681   2.000       .  S
O677       Cr681   1.988       .  S
O677        C678   1.261       .  A
C678        C708   1.477       .  S
Cr679       O682   1.782       .  S
Cr680       O682   1.777       .  S
Cr681       O682   1.782       .  S
O683       Cr701   1.970       .  S
O683        C691   1.259       .  A
O684       Cr701   2.015       .  S
O684        C685   1.267       .  A
C685        O686   1.260       .  A
C685        C993   1.482       .  S
O686       Cr702   1.975       .  S
O687       Cr702   2.012       .  S
O687        C688   1.267       .  A
C688        O689   1.258       .  A
C688        C717   1.476       .  S
O689       Cr703   1.957       .  S
O690       Cr703   2.014       .  S
O690        C691   1.267       .  A
C691        C876   1.485       .  S
O692       Cr701   2.023       .  S
O692        C700   1.269       .  A
O693       Cr701   1.948       .  S
O693        C694   1.257       .  A
C694        O695   1.271       .  A
C694       C1152   1.479       .  S
O695       Cr702   2.026       .  S
O696       Cr702   1.984       .  S
O696        C697   1.264       .  A
C697        O698   1.265       .  A
C697       C1236   1.489       .  S
O698       Cr703   2.006       .  S
O699       Cr703   1.955       .  S
O699        C700   1.256       .  A
C700        C705   1.484       .  S
Cr701       O704   1.767       .  S
Cr702       O704   1.770       .  S
Cr703       O704   1.762       .  S
C705        C706   1.406       .  A
C705        C710   1.412       .  A
C706        C707   1.392       .  A
C706        H711   1.083       .  S
C707        C708   1.408       .  A
C707        O712   1.372       .  S
C708        C709   1.405       .  A
C709        C710   1.405       .  A
C709        H713   1.084       .  S
C710        O714   1.371       .  S
O712        H716   0.992       .  S
O714        H715   0.992       .  S
C717        C718   1.404       .  A
C717        C722   1.413       .  A
C718        C719   1.395       .  A
C718        H723   1.084       .  S
C719        C720   1.412       .  A
C719        O724   1.372       .  S
C720        C721   1.404       .  A
C721        C722   1.395       .  A
C721        H725   1.084       .  S
C722        O726   1.372       .  S
O724        H728   0.992       .  S
O726        H727   0.992       .  S
C729        C730   1.402       .  A
C729        C734   1.409       .  A
C730        C731   1.402       .  A
C730        H735   1.084       .  S
C731        C732   1.411       .  A
C731        O736   1.372       .  S
C732        C733   1.401       .  A
C733        C734   1.399       .  A
C733        H737   1.084       .  S
C734        O738   1.372       .  S
O736        H740   0.992       .  S
O738        H739   0.992       .  S
C741        C742   1.404       .  A
C741        C746   1.412       .  A
C742        C743   1.397       .  A
C742        H747   1.084       .  S
C743        C744   1.412       .  A
C743        O748   1.372       .  S
C744        C745   1.405       .  A
C745        C746   1.396       .  A
C745        H749   1.084       .  S
C746        O750   1.372       .  S
O748        H752   0.992       .  S
O750        H751   0.992       .  S
C753        C754   1.408       .  A
C753        C758   1.415       .  A
C754        C755   1.409       .  A
C754        H759   1.083       .  S
C755        C756   1.409       .  A
C755        O760   1.371       .  S
C756        C757   1.400       .  A
C757        C758   1.399       .  A
C757        H761   1.084       .  S
C758        O762   1.372       .  S
O760        H764   0.992       .  S
O762        H763   0.992       .  S
C765        C766   1.396       .  A
C765        C770   1.407       .  A
C766        C767   1.396       .  A
C766        H771   1.084       .  S
C767        C768   1.415       .  A
C767        O772   1.371       .  S
C768        C769   1.404       .  A
C769        C770   1.396       .  A
C769        H773   1.084       .  S
C770        O774   1.373       .  S
O772        H776   0.992       .  S
O774        H775   0.992       .  S
C777        C778   1.405   1_654  A
C777        C782   1.412       .  A
C778        C779   1.398       .  A
C778        H783   1.084       .  S
C779        C780   1.413   1_455  A
C779        O784   1.372       .  S
C780        C781   1.406   1_556  A
C781        C782   1.398       .  A
C781        H785   1.084       .  S
C782        O786   1.372       .  S
O784        H788   0.992       .  S
O786        H787   0.992       .  S
C789        C790   1.406       .  A
C789        C794   1.410       .  A
C790        C791   1.406       .  A
C790        H795   1.083       .  S
C791        C792   1.408       .  A
C791        O796   1.371       .  S
C792        C793   1.403       .  A
C793        C794   1.395       .  A
C793        H797   1.084       .  S
C794        O798   1.372       .  S
O796        H800   0.992       .  S
O798        H799   0.992       .  S
C801        C802   1.404       .  A
C801        C806   1.413       .  A
C802        C803   1.401       .  A
C802        H807   1.083       .  S
C803        C804   1.411       .  A
C803        O808   1.372       .  S
C804        C805   1.401       .  A
C805        C806   1.394       .  A
C805        H809   1.084       .  S
C806        O810   1.373       .  S
O808        H812   0.992       .  S
O810        H811   0.992       .  S
C813        C814   1.406       .  A
C813        C818   1.415   1_556  A
C814        C815   1.403       .  A
C814        H819   1.083       .  S
C815        C816   1.414   1_556  A
C815        O820   1.372       .  S
C816        C817   1.406       .  A
C817        C818   1.403       .  A
C817        H821   1.083       .  S
C818        O822   1.372       .  S
O820        H824   0.992       .  S
O822        H823   0.992       .  S
C825        C826   1.405       .  A
C825        C830   1.409       .  A
C826        C827   1.403       .  A
C826        H831   1.084       .  S
C827        C828   1.410       .  A
C827        O832   1.371       .  S
C828        C829   1.404       .  A
C829        C830   1.393       .  A
C829        H833   1.084       .  S
C830        O834   1.373       .  S
O832        H836   0.992       .  S
O834        H835   0.992       .  S
C837        C838   1.405       .  A
C837        C842   1.412       .  A
C838        C839   1.406       .  A
C838        H843   1.083   1_545  S
C839        C840   1.410       .  A
C839        O844   1.371   1_545  S
C840        C841   1.401       .  A
C841        C842   1.397       .  A
C841        H845   1.084       .  S
C842        O846   1.372       .  S
O844        H848   0.992       .  S
O846        H847   0.992       .  S
C849        C850   1.404       .  A
C849        C854   1.413       .  A
C850        C851   1.396       .  A
C850        H855   1.084       .  S
C851        C852   1.407       .  A
C851        O856   1.372       .  S
C852        C853   1.400       .  A
C853        C854   1.400       .  A
C853        H857   1.084       .  S
C854        O858   1.371       .  S
O856        H860   0.992       .  S
O858        H859   0.992       .  S
C861        C862   1.408       .  A
C861        C866   1.411       .  A
C862        C863   1.402       .  A
C862        H867   1.083       .  S
C863        C864   1.411       .  A
C863        O868   1.372       .  S
C864        C865   1.408       .  A
C865        C866   1.401       .  A
C865        H869   1.083       .  S
C866        O870   1.371       .  S
O868        H872   0.992       .  S
O870        H871   0.992       .  S
C873        C874   1.406       .  A
C873        C878   1.410       .  A
C874        C875   1.400       .  A
C874        H879   1.084       .  S
C875        C876   1.411       .  A
C875        O880   1.371       .  S
C876        C877   1.407       .  A
C877        C878   1.401       .  A
C877        H881   1.084       .  S
C878        O882   1.371       .  S
O880        H884   0.992       .  S
O882        H883   0.992       .  S
C885        C886   1.405       .  A
C885        C890   1.409   1_655  A
C886        C887   1.395       .  A
C886        H891   1.084       .  S
C887        C888   1.410       .  A
C887        O892   1.372       .  S
C888        C889   1.404   1_655  A
C889        C890   1.392       .  A
C889        H893   1.084       .  S
C890        O894   1.372       .  S
O892        H896   0.992       .  S
O894        H895   0.992       .  S
C897        C898   1.402       .  A
C897        C902   1.411       .  A
C898        C899   1.402       .  A
C898        H903   1.084       .  S
C899        C900   1.410       .  A
C899        O904   1.372       .  S
C900        C901   1.401       .  A
C901        C902   1.402       .  A
C901        H905   1.084       .  S
C902        O906   1.372       .  S
O904        H908   0.992       .  S
O906        H907   0.992       .  S
C909        C910   1.407       .  A
C909        C914   1.413       .  A
C910        C911   1.402       .  A
C910        H915   1.083       .  S
C911        C912   1.412       .  A
C911        O916   1.372       .  S
C912        C913   1.406       .  A
C913        C914   1.400       .  A
C913        H917   1.083       .  S
C914        O918   1.372       .  S
O916        H920   0.992       .  S
O918        H919   0.992       .  S
C921        C922   1.404       .  A
C921        C926   1.413       .  A
C922        C923   1.402       .  A
C922        H927   1.084       .  S
C923        C924   1.412       .  A
C923        O928   1.371       .  S
C924        C925   1.403       .  A
C925        C926   1.399       .  A
C925        H929   1.083       .  S
C926        O930   1.372       .  S
O928        H932   0.991       .  S
O930        H931   0.992       .  S
C933        C934   1.404       .  A
C933        C938   1.411       .  A
C934        C935   1.393       .  A
C934        H939   1.084       .  S
C935        C936   1.413       .  A
C935        O940   1.372       .  S
C936        C937   1.407       .  A
C937        C938   1.403       .  A
C937        H941   1.083       .  S
C938        O942   1.371       .  S
O940        H944   0.992       .  S
O942        H943   0.992       .  S
C945        C946   1.404       .  A
C945        C950   1.413       .  A
C946        C947   1.399       .  A
C946        H951   1.084       .  S
C947        C948   1.415       .  A
C947        O952   1.372       .  S
C948        C949   1.407       .  A
C949        C950   1.404       .  A
C949        H953   1.083       .  S
C950        O954   1.371       .  S
O952        H956   0.992       .  S
O954        H955   0.992       .  S
C957        C958   1.403       .  A
C957        C962   1.412       .  A
C958        C959   1.389       .  A
C958        H963   1.084       .  S
C959        C960   1.411       .  A
C959        O964   1.373       .  S
C960        C961   1.405       .  A
C961        C962   1.401       .  A
C961        H965   1.083       .  S
C962        O966   1.371       .  S
O964        H968   0.992       .  S
O966        H967   0.992       .  S
C969        C970   1.406       .  A
C969        C974   1.410       .  A
C970        C971   1.395       .  A
C970        H975   1.084       .  S
C971        C972   1.408       .  A
C971        O976   1.372       .  S
C972        C973   1.407       .  A
C973        C974   1.398       .  A
C973        H977   1.084       .  S
C974        O978   1.372       .  S
O976        H980   0.992       .  S
O978        H979   0.992       .  S
C981        C982   1.407       .  A
C981        C986   1.407       .  A
C982        C983   1.402       .  A
C982        H987   1.084       .  S
C983        C984   1.405       .  A
C983        O988   1.371       .  S
C984        C985   1.405       .  A
C985        C986   1.401       .  A
C985        H989   1.084       .  S
C986        O990   1.371       .  S
O988        H992   0.992       .  S
O990        H991   0.992       .  S
C993        C994   1.406       .  A
C993        C998   1.408       .  A
C994        C995   1.402       .  A
C994        H999   1.084       .  S
C995        C996   1.412       .  A
C995       O1000   1.372       .  S
C996        C997   1.408       .  A
C997        C998   1.399       .  A
C997       H1001   1.083       .  S
C998       O1002   1.372       .  S
O1000      H1004   0.992       .  S
O1002      H1003   0.992       .  S
C1005      C1006   1.401       .  A
C1005      C1010   1.412       .  A
C1006      C1007   1.395       .  A
C1006      H1011   1.084       .  S
C1007      C1008   1.411       .  A
C1007      O1012   1.372       .  S
C1008      C1009   1.402       .  A
C1009      C1010   1.396       .  A
C1009      H1013   1.084       .  S
C1010      O1014   1.372       .  S
O1012      H1016   0.992       .  S
O1014      H1015   0.992       .  S
C1017      C1018   1.405       .  A
C1017      C1022   1.411       .  A
C1018      C1019   1.401       .  A
C1018      H1023   1.084       .  S
C1019      C1020   1.413       .  A
C1019      O1024   1.371       .  S
C1020      C1021   1.410       .  A
C1021      C1022   1.405       .  A
C1021      H1025   1.083       .  S
C1022      O1026   1.372       .  S
O1024      H1028   0.992       .  S
O1026      H1027   0.992       .  S
C1029      C1030   1.407       .  A
C1029      C1034   1.412       .  A
C1030      C1031   1.398       .  A
C1030      H1035   1.084       .  S
C1031      C1032   1.410       .  A
C1031      O1036   1.372       .  S
C1032      C1033   1.407       .  A
C1033      C1034   1.404       .  A
C1033      H1037   1.084       .  S
C1034      O1038   1.371       .  S
O1036      H1040   0.992       .  S
O1038      H1039   0.992       .  S
C1041      C1042   1.406   1_554  A
C1041      C1046   1.409       .  A
C1042      C1043   1.397       .  A
C1042      H1047   1.084       .  S
C1043      C1044   1.411       .  A
C1043      O1048   1.373       .  S
C1044      C1045   1.405   1_556  A
C1045      C1046   1.396       .  A
C1045      H1049   1.084       .  S
C1046      O1050   1.372       .  S
O1048      H1052   0.992       .  S
O1050      H1051   0.992       .  S
C1053      C1054   1.405       .  A
C1053      C1058   1.405       .  A
C1054      C1055   1.405       .  A
C1054      H1059   1.084       .  S
C1055      C1056   1.410       .  A
C1055      O1060   1.371       .  S
C1056      C1057   1.409       .  A
C1057      C1058   1.403       .  A
C1057      H1061   1.084       .  S
C1058      O1062   1.371       .  S
O1060      H1064   0.992       .  S
O1062      H1063   0.992       .  S
C1065      C1066   1.404   1_554  A
C1065      C1070   1.411       .  A
C1066      C1067   1.400       .  A
C1066      H1071   1.084       .  S
C1067      C1068   1.414       .  A
C1067      O1072   1.372       .  S
C1068      C1069   1.406       .  A
C1069      C1070   1.398   1_556  A
C1069      H1073   1.083   1_556  S
C1070      O1074   1.372       .  S
O1072      H1076   0.992       .  S
O1074      H1075   0.992       .  S
C1077      C1078   1.404       .  A
C1077      C1082   1.413       .  A
C1078      C1079   1.401       .  A
C1078      H1083   1.084       .  S
C1079      C1080   1.415       .  A
C1079      O1084   1.372       .  S
C1080      C1081   1.405       .  A
C1081      C1082   1.404       .  A
C1081      H1085   1.083       .  S
C1082      O1086   1.372       .  S
O1084      H1088   0.991       .  S
O1086      H1087   0.992       .  S
C1089      C1090   1.402       .  A
C1089      C1094   1.410   1_556  A
C1090      C1091   1.404       .  A
C1090      H1095   1.084       .  S
C1091      C1092   1.414   1_556  A
C1091      O1096   1.372       .  S
C1092      C1093   1.403       .  A
C1093      C1094   1.400       .  A
C1093      H1097   1.084       .  S
C1094      O1098   1.372       .  S
O1096      H1100   0.992       .  S
O1098      H1099   0.992       .  S
C1101      C1102   1.407       .  A
C1101      C1106   1.414       .  A
C1102      C1103   1.405       .  A
C1102      H1107   1.083       .  S
C1103      C1104   1.412       .  A
C1103      O1108   1.371       .  S
C1104      C1105   1.406       .  A
C1105      C1106   1.400       .  A
C1105      H1109   1.084       .  S
C1106      O1110   1.372       .  S
O1108      H1112   0.992       .  S
O1110      H1111   0.992       .  S
C1113      C1114   1.405       .  A
C1113      C1118   1.414       .  A
C1114      C1115   1.395       .  A
C1114      H1119   1.084       .  S
C1115      C1116   1.413       .  A
C1115      O1120   1.372       .  S
C1116      C1117   1.407       .  A
C1117      C1118   1.409       .  A
C1117      H1121   1.083       .  S
C1118      O1122   1.371       .  S
O1120      H1124   0.992       .  S
O1122      H1123   0.992       .  S
C1125      C1126   1.403       .  A
C1125      C1130   1.411       .  A
C1126      C1127   1.405       .  A
C1126      H1131   1.084       .  S
C1127      C1128   1.414       .  A
C1127      O1132   1.372       .  S
C1128      C1129   1.404       .  A
C1129      C1130   1.401       .  A
C1129      H1133   1.084       .  S
C1130      O1134   1.372       .  S
O1132      H1136   0.992       .  S
O1134      H1135   0.992       .  S
C1137      C1138   1.406       .  A
C1137      C1142   1.412       .  A
C1138      C1139   1.400       .  A
C1138      H1143   1.083       .  S
C1139      C1140   1.410       .  A
C1139      O1144   1.371       .  S
C1140      C1141   1.404       .  A
C1141      C1142   1.401       .  A
C1141      H1145   1.083       .  S
C1142      O1146   1.372       .  S
O1144      H1148   0.992       .  S
O1146      H1147   0.992       .  S
C1149      C1150   1.403       .  A
C1149      C1154   1.412       .  A
C1150      C1151   1.389       .  A
C1150      H1155   1.083       .  S
C1151      C1152   1.412       .  A
C1151      O1156   1.372       .  S
C1152      C1153   1.407       .  A
C1153      C1154   1.404       .  A
C1153      H1157   1.083       .  S
C1154      O1158   1.371       .  S
O1156      H1160   0.992       .  S
O1158      H1159   0.992       .  S
C1161      C1162   1.407       .  A
C1161      C1166   1.413       .  A
C1162      C1163   1.400       .  A
C1162      H1167   1.083       .  S
C1163      C1164   1.411       .  A
C1163      O1168   1.372       .  S
C1164      C1165   1.406       .  A
C1165      C1166   1.402       .  A
C1165      H1169   1.083       .  S
C1166      O1170   1.371       .  S
O1168      H1172   0.992       .  S
O1170      H1171   0.992       .  S
C1173      C1174   1.408       .  A
C1173      C1178   1.408       .  A
C1174      C1175   1.404       .  A
C1174      H1179   1.083       .  S
C1175      C1176   1.407       .  A
C1175      O1180   1.371       .  S
C1176      C1177   1.405       .  A
C1177      C1178   1.392       .  A
C1177      H1181   1.084       .  S
C1178      O1182   1.373       .  S
O1180      H1184   0.992       .  S
O1182      H1183   0.992       .  S
C1185      C1186   1.405       .  A
C1185      C1190   1.410       .  A
C1186      C1187   1.397       .  A
C1186      H1191   1.084       .  S
C1187      C1188   1.409       .  A
C1187      O1192   1.373       .  S
C1188      C1189   1.405       .  A
C1189      C1190   1.397       .  A
C1189      H1193   1.084       .  S
C1190      O1194   1.372       .  S
O1192      H1196   0.992       .  S
O1194      H1195   0.992       .  S
C1197      C1198   1.402       .  A
C1197      C1202   1.412       .  A
C1198      C1199   1.404       .  A
C1198      H1203   1.084       .  S
C1199      C1200   1.410       .  A
C1199      O1204   1.372       .  S
C1200      C1201   1.403       .  A
C1201      C1202   1.403       .  A
C1201      H1205   1.084       .  S
C1202      O1206   1.372       .  S
O1204      H1208   0.992       .  S
O1206      H1207   0.992       .  S
C1209      C1210   1.406       .  A
C1209      C1214   1.409       .  A
C1210      C1211   1.401       .  A
C1210      H1215   1.084       .  S
C1211      C1212   1.413       .  A
C1211      O1216   1.371       .  S
C1212      C1213   1.409       .  A
C1213      C1214   1.402       .  A
C1213      H1217   1.083       .  S
C1214      O1218   1.372       .  S
O1216      H1220   0.992       .  S
O1218      H1219   0.992       .  S
C1221      C1222   1.407       .  A
C1221      C1226   1.410       .  A
C1222      C1223   1.399       .  A
C1222      H1227   1.084       .  S
C1223      C1224   1.409       .  A
C1223      O1228   1.372       .  S
C1224      C1225   1.405       .  A
C1225      C1226   1.397       .  A
C1225      H1229   1.084       .  S
C1226      O1230   1.372       .  S
O1228      H1232   0.992       .  S
O1230      H1231   0.992       .  S
C1233      C1234   1.404       .  A
C1233      C1238   1.414       .  A
C1234      C1235   1.401       .  A
C1234      H1239   1.083       .  S
C1235      C1236   1.414       .  A
C1235      O1240   1.372       .  S
C1236      C1237   1.405       .  A
C1237      C1238   1.402       .  A
C1237      H1241   1.083       .  S
C1238      O1242   1.372       .  S
O1240      H1244   0.992       .  S
O1242      H1243   0.992       .  S
C1245      C1246   1.406       .  A
C1245      C1250   1.414       .  A
C1246      C1247   1.400       .  A
C1246      H1251   1.083       .  S
C1247      C1248   1.411       .  A
C1247      O1252   1.372       .  S
C1248      C1249   1.404       .  A
C1249      C1250   1.401       .  A
C1249      H1253   1.084       .  S
C1250      O1254   1.371       .  S
O1252      H1256   0.992       .  S
O1254      H1255   0.992       .  S
C1257      C1258   1.408       .  A
C1257      C1262   1.414       .  A
C1258      C1259   1.408       .  A
C1258      H1263   1.083       .  S
C1259      C1260   1.412       .  A
C1259      O1264   1.371       .  S
C1260      C1261   1.403       .  A
C1261      C1262   1.393       .  A
C1261      H1265   1.084       .  S
C1262      O1266   1.372       .  S
O1264      H1268   0.992       .  S
O1266      H1267   0.992       .  S
C1269      C1270   1.403       .  A
C1269      C1274   1.407       .  A
C1270      C1271   1.407       .  A
C1270      H1275   1.084       .  S
C1271      C1272   1.415       .  A
C1271      O1276   1.371       .  S
C1272      C1273   1.407       .  A
C1273      C1274   1.400       .  A
C1273      H1277   1.083       .  S
C1274      O1278   1.372       .  S
O1276      H1280   0.992       .  S
O1278      H1279   0.992       .  S
C1281      C1282   1.407       .  A
C1281      C1286   1.410       .  A
C1282      C1283   1.399       .  A
C1282      H1287   1.084       .  S
C1283      C1284   1.408       .  A
C1283      O1288   1.372       .  S
C1284      C1285   1.406       .  A
C1285      C1286   1.401       .  A
C1285      H1289   1.084       .  S
C1286      O1290   1.371       .  S
O1288      H1292   0.992       .  S
O1290      H1291   0.992       .  S
C1293      C1294   1.406       .  A
C1293      C1298   1.410       .  A
C1294      C1295   1.389       .  A
C1294      H1299   1.084       .  S
C1295      C1296   1.410       .  A
C1295      O1300   1.373       .  S
C1296      C1297   1.408       .  A
C1297      C1298   1.404       .  A
C1297      H1301   1.083       .  S
C1298      O1302   1.371       .  S
O1300      H1304   0.992       .  S
O1302      H1303   0.992       .  S
C1305      C1306   1.404   1_655  A
C1305      C1310   1.408       .  A
C1306      C1307   1.396       .  A
C1306      H1311   1.084       .  S
C1307      C1308   1.403   1_455  A
C1307      O1312   1.372       .  S
C1308      C1309   1.400       .  A
C1309      C1310   1.398       .  A
C1309      H1313   1.085       .  S
C1310      O1314   1.375       .  S
O1312      H1316   0.992       .  S
O1314      H1315   0.992       .  S
C1317      C1318   1.408       .  A
C1317      C1322   1.413       .  A
C1318      C1319   1.403       .  A
C1318      H1323   1.083       .  S
C1319      C1320   1.412       .  A
C1319      O1324   1.371       .  S
C1320      C1321   1.406       .  A
C1321      C1322   1.402       .  A
C1321      H1325   1.083       .  S
C1322      O1326   1.372       .  S
O1324      H1328   0.992       .  S
O1326      H1327   0.992       .  S
C1329      C1330   1.406       .  A
C1329      C1334   1.408       .  A
C1330      C1331   1.405       .  A
C1330      H1335   1.084       .  S
C1331      C1332   1.410       .  A
C1331      O1336   1.371       .  S
C1332      C1333   1.404       .  A
C1333      C1334   1.390       .  A
C1333      H1337   1.084       .  S
C1334      O1338   1.372       .  S
O1336      H1340   0.992       .  S
O1338      H1339   0.992       .  S
C1341      C1342   1.409       .  A
C1341      C1346   1.410   1_554  A
C1342      C1343   1.395       .  A
C1342      H1347   1.083       .  S
C1343      C1344   1.401       .  A
C1343      O1348   1.372       .  S
C1344      C1345   1.402   1_554  A
C1345      C1346   1.396       .  A
C1345      H1349   1.085       .  S
C1346      O1350   1.372       .  S
O1348      H1352   0.992       .  S
O1350      H1351   0.992       .  S
C1353      C1354   1.401       .  A
C1353      C1358   1.403       .  A
C1354      C1355   1.405       .  A
C1354      H1359   1.082   1_565  S
C1355      C1356   1.413       .  A
C1355      O1360   1.371   1_565  S
C1356      C1357   1.408       .  A
C1357      C1358   1.395       .  A
C1357      H1361   1.083       .  S
C1358      O1362   1.372       .  S
O1360      H1364   0.992       .  S
O1362      H1363   0.992       .  S
C1365      C1366   1.407   1_556  A
C1365      C1370   1.412       .  A
C1366      C1367   1.401       .  A
C1366      H1371   1.083       .  S
C1367      C1368   1.410       .  A
C1367      O1372   1.372       .  S
C1368      C1369   1.407       .  A
C1369      C1370   1.401   1_554  A
C1369      H1373   1.083   1_554  S
C1370      O1374   1.372       .  S
O1372      H1376   0.992       .  S
O1374      H1375   0.992       .  S
C1377      C1378   1.399       .  A
C1377      C1382   1.411       .  A
C1378      C1379   1.387       .  A
C1378      H1383   1.084       .  S
C1379      C1380   1.412       .  A
C1379      O1384   1.372       .  S
C1380      C1381   1.405       .  A
C1381      C1382   1.402       .  A
C1381      H1385   1.083       .  S
C1382      O1386   1.372       .  S
O1384      H1388   0.992       .  S
O1386      H1387   0.992       .  S
C1389      C1390   1.404       .  A
C1389      C1394   1.413       .  A
C1390      C1391   1.399       .  A
C1390      H1395   1.084       .  S
C1391      C1392   1.414       .  A
C1391      O1396   1.372   1_565  S
C1392      C1393   1.406       .  A
C1393      C1394   1.401       .  A
C1393      H1397   1.083       .  S
C1394      O1398   1.372       .  S
O1396      H1400   0.992       .  S
O1398      H1399   0.992       .  S
C1401      C1402   1.406       .  A
C1401      C1406   1.415       .  A
C1402      C1403   1.402       .  A
C1402      H1407   1.083       .  S
C1403      C1404   1.412       .  A
C1403      O1408   1.372       .  S
C1404      C1405   1.404       .  A
C1405      C1406   1.400       .  A
C1405      H1409   1.084       .  S
C1406      O1410   1.372       .  S
O1408      H1412   0.992       .  S
O1410      H1411   0.992       .  S
C1413      C1414   1.407       .  A
C1413      C1418   1.412       .  A
C1414      C1415   1.400       .  A
C1414      H1419   1.084       .  S
C1415      C1416   1.410       .  A
C1415      O1420   1.371       .  S
C1416      C1417   1.406       .  A
C1417      C1418   1.402       .  A
C1417      H1421   1.084       .  S
C1418      O1422   1.372       .  S
O1420      H1424   0.992       .  S
O1422      H1423   0.991       .  S
C1425      C1426   1.399       .  A
C1425      C1430   1.411       .  A
C1426      C1427   1.389       .  A
C1426      H1431   1.084       .  S
C1427      C1428   1.412       .  A
C1427      O1432   1.373       .  S
C1428      C1429   1.403       .  A
C1429      C1430   1.401       .  A
C1429      H1433   1.083       .  S
C1430      O1434   1.372       .  S
O1432      H1436   0.992       .  S
O1434      H1435   0.992       .  S
C1437      C1438   1.405       .  A
C1437      C1442   1.405       .  A
C1438      C1439   1.408       .  A
C1438      H1443   1.084       .  S
C1439      C1440   1.414       .  A
C1439      O1444   1.371       .  S
C1440      C1441   1.408       .  A
C1441      C1442   1.397       .  A
C1441      H1445   1.083       .  S
C1442      O1446   1.372       .  S
O1444      H1448   0.992       .  S
O1446      H1447   0.992       .  S
C1449      C1450   1.403       .  A
C1449      C1454   1.416       .  A
C1450      C1451   1.398       .  A
C1450      H1455   1.084       .  S
C1451      C1452   1.411       .  A
C1451      O1456   1.372       .  S
C1452      C1453   1.403       .  A
C1453      C1454   1.405       .  A
C1453      H1457   1.084       .  S
C1454      O1458   1.372   1_565  S
O1456      H1460   0.992       .  S
O1458      H1459   0.992       .  S
C1461      C1462   1.405       .  A
C1461      C1466   1.414       .  A
C1462      C1463   1.401       .  A
C1462      H1467   1.084       .  S
C1463      C1464   1.409       .  A
C1463      O1468   1.372       .  S
C1464      C1465   1.401       .  A
C1465      C1466   1.402       .  A
C1465      H1469   1.084       .  S
C1466      O1470   1.372       .  S
O1468      H1472   0.992       .  S
O1470      H1471   0.992       .  S
C1473      C1474   1.408       .  A
C1473      C1478   1.411       .  A
C1474      C1475   1.405       .  A
C1474      H1479   1.083       .  S
C1475      C1476   1.411       .  A
C1475      O1480   1.371       .  S
C1476      C1477   1.407       .  A
C1477      C1478   1.400       .  A
C1477      H1481   1.084       .  S
C1478      O1482   1.372       .  S
O1480      H1484   0.992       .  S
O1482      H1483   0.992       .  S
C1485      C1486   1.408       .  A
C1485      C1490   1.403       .  A
C1486      C1487   1.397       .  A
C1486      H1491   1.084       .  S
C1487      C1488   1.404       .  A
C1487      O1492   1.372       .  S
C1488      C1489   1.409       .  A
C1489      C1490   1.398       .  A
C1489      H1493   1.084       .  S
C1490      O1494   1.372       .  S
O1492      H1496   0.992       .  S
O1494      H1495   0.992       .  S
C1497      C1498   1.402       .  A
C1497      C1502   1.411   1_556  A
C1498      C1499   1.403       .  A
C1498      H1503   1.084       .  S
C1499      C1500   1.414   1_556  A
C1499      O1504   1.371       .  S
C1500      C1501   1.405       .  A
C1501      C1502   1.402       .  A
C1501      H1505   1.084       .  S
C1502      O1506   1.372       .  S
O1504      H1508   0.992       .  S
O1506      H1507   0.992       .  S
C1509      C1510   1.403       .  A
C1509      C1514   1.412       .  A
C1510      C1511   1.399       .  A
C1510      H1515   1.084       .  S
C1511      C1512   1.413       .  A
C1511      O1516   1.373       .  S
C1512      C1513   1.406       .  A
C1513      C1514   1.405       .  A
C1513      H1517   1.083       .  S
C1514      O1518   1.372       .  S
O1516      H1520   0.992       .  S
O1518      H1519   0.992       .  S
C1521      C1522   1.405       .  A
C1521      C1526   1.408       .  A
C1522      C1523   1.408       .  A
C1522      H1527   1.084       .  S
C1523      C1524   1.414   1_556  A
C1523      O1528   1.371   1_545  S
C1524      C1525   1.405       .  A
C1525      C1526   1.398   1_554  A
C1525      H1529   1.084       .  S
C1526      O1530   1.372       .  S
O1528      H1532   0.992       .  S
O1530      H1531   0.992       .  S
C1533      C1534   1.404       .  A
C1533      C1538   1.411       .  A
C1534      C1535   1.389       .  A
C1534      H1539   1.084       .  S
C1535      C1536   1.414       .  A
C1535      O1540   1.373       .  S
C1536      C1537   1.407       .  A
C1537      C1538   1.404       .  A
C1537      H1541   1.083       .  S
C1538      O1542   1.371       .  S
O1540      H1544   0.992       .  S
O1542      H1543   0.992       .  S
C1545      C1546   1.401       .  A
C1545      C1550   1.405       .  A
C1546      C1547   1.400   1_565  A
C1546      H1551   1.084       .  S
C1547      C1548   1.411       .  A
C1547      O1552   1.372       .  S
C1548      C1549   1.404       .  A
C1549      C1550   1.395   1_545  A
C1549      H1553   1.083       .  S
C1550      O1554   1.372       .  S
O1552      H1556   0.992       .  S
O1554      H1555   0.992       .  S
C1557      C1558   1.410       .  A
C1557      C1562   1.410       .  A
C1558      C1559   1.412       .  A
C1558      H1563   1.083       .  S
C1559      C1560   1.413       .  A
C1559      O1564   1.371       .  S
C1560      C1561   1.406       .  A
C1561      C1562   1.392       .  A
C1561      H1565   1.083       .  S
C1562      O1566   1.372       .  S
O1564      H1568   0.992       .  S
O1566      H1567   0.992       .  S
C1569      C1570   1.405       .  A
C1569      C1574   1.414       .  A
C1570      C1571   1.405       .  A
C1570      H1575   1.083       .  S
C1571      C1572   1.416       .  A
C1571      O1576   1.372       .  S
C1572      C1573   1.406       .  A
C1573      C1574   1.401       .  A
C1573      H1577   1.083       .  S
C1574      O1578   1.372       .  S
O1576      H1580   0.992       .  S
O1578      H1579   0.992       .  S
C1581      C1582   1.406       .  A
C1581      C1586   1.412       .  A
C1582      C1583   1.405       .  A
C1582      H1587   1.083       .  S
C1583      C1584   1.412       .  A
C1583      O1588   1.372       .  S
C1584      C1585   1.406       .  A
C1585      C1586   1.399       .  A
C1585      H1589   1.084       .  S
C1586      O1590   1.372       .  S
O1588      H1592   0.994       .  S
O1590      H1591   0.992       .  S
C1593      C1594   1.408       .  A
C1593      C1598   1.415       .  A
C1594      C1595   1.403       .  A
C1594      H1599   1.083   1_545  S
C1595      C1596   1.410       .  A
C1595      O1600   1.371       .  S
C1596      C1597   1.405       .  A
C1597      C1598   1.401       .  A
C1597      H1601   1.084       .  S
C1598      O1602   1.372       .  S
O1600      H1604   0.992       .  S
O1602      H1603   0.992       .  S
C1605      C1606   1.404       .  A
C1605      C1610   1.411       .  A
C1606      C1607   1.400       .  A
C1606      H1611   1.083       .  S
C1607      C1608   1.412       .  A
C1607      O1612   1.371       .  S
C1608      C1609   1.404       .  A
C1609      C1610   1.389       .  A
C1609      H1613   1.084       .  S
C1610      O1614   1.373       .  S
O1612      H1616   0.992       .  S
O1614      H1615   0.992       .  S
C1617      C1618   1.405       .  A
C1617      C1622   1.417       .  A
C1618      C1619   1.401       .  A
C1618      H1623   1.083       .  S
C1619      C1620   1.412       .  A
C1619      O1624   1.372       .  S
C1620      C1621   1.403       .  A
C1621      C1622   1.401       .  A
C1621      H1625   1.084   1_565  S
C1622      O1626   1.372       .  S
O1624      H1628   0.992       .  S
O1626      H1627   0.992       .  S
C1629      C1630   1.405       .  A
C1629      C1634   1.416       .  A
C1630      C1631   1.398       .  A
C1630      H1635   1.083       .  S
C1631      C1632   1.411       .  A
C1631      O1636   1.372       .  S
C1632      C1633   1.404       .  A
C1633      C1634   1.408       .  A
C1633      H1637   1.083       .  S
C1634      O1638   1.371       .  S
O1636      H1640   0.992       .  S
O1638      H1639   0.992       .  S
C1641      C1642   1.407       .  A
C1641      C1646   1.410       .  A
C1642      C1643   1.405       .  A
C1642      H1647   1.084       .  S
C1643      C1644   1.413       .  A
C1643      O1648   1.372       .  S
C1644      C1645   1.405       .  A
C1645      C1646   1.399       .  A
C1645      H1649   1.084       .  S
C1646      O1650   1.372       .  S
O1648      H1652   0.990       .  S
O1650      H1651   0.992       .  S
C1653      C1654   1.405       .  A
C1653      C1658   1.408       .  A
C1654      C1655   1.402       .  A
C1654      H1659   1.084       .  S
C1655      C1656   1.410       .  A
C1655      O1660   1.371       .  S
C1656      C1657   1.405       .  A
C1657      C1658   1.392       .  A
C1657      H1661   1.084       .  S
C1658      O1662   1.373       .  S
O1660      H1664   0.992   1_554  S
O1662      H1663   0.992       .  S
C1665      C1666   1.402       .  A
C1665      C1670   1.405   1_554  A
C1666      C1667   1.396   1_545  A
C1666      H1671   1.085       .  S
C1667      C1668   1.406       .  A
C1667      O1672   1.373       .  S
C1668      C1669   1.405       .  A
C1669      C1670   1.400   1_564  A
C1669      H1673   1.084   1_554  S
C1670      O1674   1.372       .  S
O1672      H1676   0.991       .  S
O1674      H1675   0.992       .  S
C1677      C1678   1.407       .  A
C1677      C1682   1.407       .  A
C1678      C1679   1.403       .  A
C1678      H1683   1.084       .  S
C1679      C1680   1.406       .  A
C1679      O1684   1.371       .  S
C1680      C1681   1.405       .  A
C1681      C1682   1.403       .  A
C1681      H1685   1.084       .  S
C1682      O1686   1.371       .  S
O1684      H1688   0.992       .  S
O1686      H1687   0.992       .  S
C1689      C1690   1.409   1_556  A
C1689      C1694   1.413       .  A
C1690      C1691   1.402       .  A
C1690      H1695   1.083   1_565  S
C1691      C1692   1.409       .  A
C1691      O1696   1.371       .  S
C1692      C1693   1.405   1_554  A
C1693      C1694   1.399       .  A
C1693      H1697   1.084       .  S
C1694      O1698   1.372       .  S
O1696      H1700   0.992       .  S
O1698      H1699   0.992       .  S
C1701      C1702   1.406       .  A
C1701      C1706   1.413   1_554  A
C1702      C1703   1.400   1_554  A
C1702      H1707   1.084       .  S
C1703      C1704   1.409       .  A
C1703      O1708   1.372       .  S
C1704      C1705   1.404       .  A
C1705      C1706   1.406       .  A
C1705      H1709   1.084       .  S
C1706      O1710   1.371       .  S
O1708      H1712   0.992       .  S
O1710      H1711   0.992       .  S
C1713      C1714   1.406       .  A
C1713      C1718   1.411       .  A
C1714      C1715   1.404       .  A
C1714      H1719   1.084       .  S
C1715      C1716   1.412       .  A
C1715      O1720   1.371       .  S
C1716      C1717   1.407       .  A
C1717      C1718   1.402       .  A
C1717      H1721   1.084       .  S
C1718      O1722   1.371       .  S
O1720      H1724   0.991       .  S
O1722      H1723   0.992       .  S
C1725      C1726   1.409       .  A
C1725      C1730   1.409       .  A
C1726      C1727   1.402       .  A
C1726      H1731   1.083       .  S
C1727      C1728   1.405       .  A
C1727      O1732   1.371       .  S
C1728      C1729   1.401       .  A
C1729      C1730   1.387       .  A
C1729      H1733   1.084       .  S
C1730      O1734   1.372       .  S
O1732      H1736   0.992       .  S
O1734      H1735   0.991       .  S
C1737      C1738   1.403       .  A
C1737      C1742   1.411       .  A
C1738      C1739   1.396   1_545  A
C1738      H1743   1.084       .  S
C1739      C1740   1.413       .  A
C1739      O1744   1.372       .  S
C1740      C1741   1.401       .  A
C1741      C1742   1.393   1_565  A
C1741      H1745   1.083       .  S
C1742      O1746   1.372       .  S
O1744      H1748   0.992       .  S
O1746      H1747   0.992       .  S
C1749      C1750   1.407       .  A
C1749      C1754   1.411       .  A
C1750      C1751   1.399       .  A
C1750      H1755   1.084       .  S
C1751      C1752   1.411       .  A
C1751      O1756   1.372       .  S
C1752      C1753   1.407       .  A
C1753      C1754   1.401       .  A
C1753      H1757   1.083       .  S
C1754      O1758   1.371       .  S
O1756      H1760   0.992       .  S
O1758      H1759   0.992       .  S
C1761      C1762   1.405       .  A
C1761      C1766   1.415       .  A
C1762      C1763   1.400       .  A
C1762      H1767   1.083       .  S
C1763      C1764   1.411       .  A
C1763      O1768   1.371       .  S
C1764      C1765   1.404       .  A
C1765      C1766   1.402       .  A
C1765      H1769   1.084       .  S
C1766      O1770   1.372       .  S
O1768      H1772   0.992       .  S
O1770      H1771   0.992       .  S
C1773      C1774   1.406       .  A
C1773      C1778   1.415       .  A
C1774      C1775   1.401       .  A
C1774      H1779   1.083       .  S
C1775      C1776   1.413       .  A
C1775      O1780   1.372       .  S
C1776      C1777   1.406       .  A
C1777      C1778   1.405       .  A
C1777      H1781   1.083       .  S
C1778      O1782   1.371   1_545  S
O1780      H1784   0.992       .  S
O1782      H1783   0.992       .  S
C1785      C1786   1.403       .  A
C1785      C1790   1.412       .  A
C1786      C1787   1.389       .  A
C1786      H1791   1.084       .  S
C1787      C1788   1.413       .  A
C1787      O1792   1.373       .  S
C1788      C1789   1.407       .  A
C1789      C1790   1.404       .  A
C1789      H1793   1.083       .  S
C1790      O1794   1.371       .  S
O1792      H1796   0.992       .  S
O1794      H1795   0.992       .  S
C1797      C1798   1.406       .  A
C1797      C1802   1.409   1_655  A
C1798      C1799   1.399   1_545  A
C1798      H1803   1.084       .  S
C1799      C1800   1.409       .  A
C1799      O1804   1.371       .  S
C1800      C1801   1.406   1_655  A
C1801      C1802   1.398   1_565  A
C1801      H1805   1.084       .  S
C1802      O1806   1.372       .  S
O1804      H1808   0.992       .  S
O1806      H1807   0.992       .  S
C1809      C1810   1.403       .  A
C1809      C1814   1.410       .  A
C1810      C1811   1.401       .  A
C1810      H1815   1.084       .  S
C1811      C1812   1.409       .  A
C1811      O1816   1.372       .  S
C1812      C1813   1.401       .  A
C1813      C1814   1.401       .  A
C1813      H1817   1.084       .  S
C1814      O1818   1.372       .  S
O1816      H1820   0.991       .  S
O1818      H1819   0.992       .  S
C1821      C1822   1.405       .  A
C1821      C1826   1.415       .  A
C1822      C1823   1.402       .  A
C1822      H1827   1.083       .  S
C1823      C1824   1.414       .  A
C1823      O1828   1.371       .  S
C1824      C1825   1.405       .  A
C1825      C1826   1.402       .  A
C1825      H1829   1.083       .  S
C1826      O1830   1.372       .  S
O1828      H1832   0.992       .  S
O1830      H1831   0.992       .  S
C1833      C1834   1.403       .  A
C1833      C1838   1.410       .  A
C1834      C1835   1.400       .  A
C1834      H1839   1.084       .  S
C1835      C1836   1.413       .  A
C1835      O1840   1.373       .  S
C1836      C1837   1.404       .  A
C1837      C1838   1.397       .  A
C1837      H1841   1.083       .  S
C1838      O1842   1.371       .  S
O1840      H1844   0.992       .  S
O1842      H1843   0.992       .  S
C1845      C1846   1.409       .  A
C1845      C1850   1.412       .  A
C1846      C1847   1.399       .  A
C1846      H1851   1.083       .  S
C1847      C1848   1.409       .  A
C1847      O1852   1.372   1_545  S
C1848      C1849   1.407       .  A
C1849      C1850   1.403       .  A
C1849      H1853   1.083       .  S
C1850      O1854   1.371       .  S
O1852      H1856   0.992       .  S
O1854      H1855   0.992       .  S
