geometry optimzed in LAMMPS
_audit_creation_date              2020-12-01 
_audit_creation_method            'lammps2cif' 
_symmetry_space_group_name_H-M    'P1' 
_symmetry_Int_Tables_number       1 
_symmetry_cell_setting            triclinic 
loop_ 
_symmetry_equiv_pos_as_xyz 
  x,y,z 
_cell_length_a                    48.20735191 
_cell_length_b                    20.973141027334407 
_cell_length_c                    102.43206247444427 
_cell_angle_alpha                 89.81252850390182 
_cell_angle_beta                  90.03818422801469 
_cell_angle_gamma                 89.95103962767273 
loop_ 
_atom_site_label 
_atom_site_type_symbol 
_atom_site_fract_x 
_atom_site_fract_y 
_atom_site_fract_z 
_atom_site_charge 
O1          O  0.73394166  0.82902398  0.15268470    -0.73300
O2          O  0.72689826  0.80181905  0.19151714    -0.74300
O3          O  0.69305906  0.85605783  0.17177343    -0.62900
O4          O  0.76749897  0.77267159  0.17253162    -0.71300
O5          O  0.78758371  0.86642325  0.17564413    -0.70900
O6          O  0.71193318  0.95062309  0.17547775    -0.62100
O7          O  0.74685562  0.89562707  0.19477052    -0.74600
O8          O  0.75241959  0.92420696  0.15635596    -0.73400
Cu9        Cu  0.72972926  0.81163850  0.17198059     1.04600
Cu10       Cu  0.75048555  0.91243560  0.17566627     1.04300
C11         C  0.74357887  0.88200006  0.14844190     0.92900
C12         C  0.73574370  0.84492941  0.19928393     0.92000
C13         C  0.69046141  0.91596854  0.17359401     0.84200
C14         C  0.78934115  0.80577631  0.17436114     0.90400
O15         O  0.70177305  0.91835142  0.30540698    -0.73300
O16         O  0.77923151  0.85142579  0.30301044    -0.74300
O17         O  0.74030596  0.89995319  0.28484527    -0.62900
O18         O  0.74056858  0.86716484  0.32372898    -0.71300
O19         O  0.72490406  0.76946381  0.32006278    -0.70900
O20         O  0.72309123  0.80319530  0.28174764    -0.62100
O21         O  0.76291117  0.75434405  0.29931975    -0.74600
O22         O  0.68482966  0.82120781  0.30247637    -0.73400
Cu23       Cu  0.74098748  0.88767327  0.30439563     1.04600
Cu24       Cu  0.72330987  0.78374946  0.30081297     1.04300
C25         C  0.68103375  0.88101647  0.30418651     0.92900
C26         C  0.78341817  0.79252543  0.30061728     0.92000
C27         C  0.73188577  0.85605304  0.27714971     0.84200
C28         C  0.73317350  0.81225978  0.32798231     0.90400
O29         O  0.92495112  0.51860764  0.17985190    -0.73300
O30         O  0.00206899  0.43951246  0.18134832    -0.74300
O31         O  0.96421268  0.49130169  0.19985903    -0.62900
O32         O  0.96253454  0.46265626  0.16146898    -0.71300
O33         O  0.98056526  0.55854087  0.15807521    -0.70900
O34         O  0.98329807  0.58652041  0.19712439    -0.62100
O35         O  0.01973888  0.53583641  0.17816639    -0.74600
O36         O  0.94457514  0.61311627  0.17700902    -0.73400
Cu37       Cu  0.96271833  0.47471552  0.18075142     1.04600
Cu38       Cu  0.98263216  0.57678532  0.17747664     1.04300
C39         C  0.92283214  0.57914408  0.17829366     0.92900
C40         C  0.02313577  0.47610585  0.17987226     0.92000
C41         C  0.97413652  0.54247630  0.20465800     0.84200
C42         C  0.97161010  0.50525874  0.15366779     0.90400
O43         O  0.01498161  0.55335579  0.30984603    -0.73300
O44         O  0.94476419  0.64639393  0.30476104    -0.74300
O45         O  0.98160460  0.58362628  0.28785166    -0.62900
O46         O  0.97858610  0.62127751  0.32669356    -0.71300
O47         O  0.00211182  0.71019579  0.32285759    -0.70900
O48         O  0.00432329  0.67438857  0.28493486    -0.62100
O49         O  0.96654992  0.73820552  0.30161673    -0.74600
O50         O  0.03933392  0.64116116  0.30614447    -0.73400
Cu51       Cu  0.97928050  0.59803424  0.30743340     1.04600
Cu52       Cu  0.00402361  0.69406874  0.30381417     1.04300
C53         C  0.03828773  0.58106288  0.30851415     0.92900
C54         C  0.94401734  0.70595308  0.30235729     0.92000
C55         C  0.99308838  0.62450128  0.28025189     0.84200
C56         C  0.98937061  0.67342588  0.33075452     0.90400
O57         O  0.48611146  0.07928246  0.15068241    -0.73300
O58         O  0.48896292  0.12588241  0.18902241    -0.74300
O59         O  0.52600348  0.06781611  0.17099205    -0.62900
O60         O  0.44915776  0.14030791  0.16872327    -0.71300
O61         O  0.43127705  0.04572242  0.17344999    -0.70900
O62         O  0.50873027  0.97298382  0.17606438    -0.62100
O63         O  0.47111143  0.03132853  0.19379219    -0.74600
O64         O  0.46925555  0.98424520  0.15590289    -0.73400
Cu65       Cu  0.48809938  0.10666590  0.16966175     1.04600
Cu66       Cu  0.46940873  0.00542562  0.17498299     1.04300
C67         C  0.47794810  0.02356328  0.14729813     0.92900
C68         C  0.48057729  0.08519568  0.19749031     0.92000
C69         C  0.52960192  0.00899292  0.17376637     0.84200
C70         C  0.42803785  0.10507509  0.17085832     0.90400
O71         O  0.44142973  0.11503858  0.30289301    -0.73300
O72         O  0.51851888  0.04331293  0.30360485    -0.74300
O73         O  0.48319534  0.10056617  0.32249543    -0.62900
O74         O  0.47715437  0.06004598  0.28398579    -0.71300
O75         O  0.49472457  0.15506392  0.27936202    -0.70900
O76         O  0.49939702  0.19641351  0.31741614    -0.62100
O77         O  0.53584816  0.13867700  0.29906277    -0.74600
O78         O  0.45838419  0.21018670  0.29784711    -0.73400
Cu79       Cu  0.47951104  0.07635909  0.30342313     1.04600
Cu80       Cu  0.49771253  0.17828974  0.29825845     1.04300
C81         C  0.43763779  0.17385510  0.30016378     0.92900
C82         C  0.53940139  0.07933595  0.30150820     0.92000
C83         C  0.49201432  0.15552886  0.32598955     0.84200
C84         C  0.48486480  0.10174319  0.27557757     0.90400
O85         O  0.22827473  0.33023798  0.15116898    -0.73300
O86         O  0.22822689  0.29010685  0.19007063    -0.74300
O87         O  0.18949928  0.34256996  0.17212859    -0.62900
O88         O  0.26669375  0.27399918  0.16924459    -0.71300
O89         O  0.28417592  0.36992485  0.17295415    -0.70900
O90         O  0.20600051  0.43890765  0.17636869    -0.62100
O91         O  0.24567297  0.38623090  0.19360144    -0.74600
O92         O  0.24452155  0.42651238  0.15569875    -0.73400
Cu93       Cu  0.22763530  0.30578309  0.17046806     1.04600
Cu94       Cu  0.24572611  0.40858619  0.17476354     1.04300
C95         C  0.23600800  0.38583058  0.14739668     0.92900
C96         C  0.23679079  0.33307042  0.19797616     0.92000
C97         C  0.18538132  0.40110238  0.17489761     0.84200
C98         C  0.28767214  0.31028915  0.17080828     0.90400
O99         O  0.20621519  0.42633272  0.30322372    -0.73300
O100        O  0.27655935  0.33033779  0.30282329    -0.74300
O101        O  0.24387842  0.38982632  0.28354441    -0.62900
O102        O  0.23817491  0.36252744  0.32263542    -0.71300
O103        O  0.21632161  0.27132637  0.31889846    -0.70900
O104        O  0.22031030  0.30035547  0.28053109    -0.62100
O105        O  0.25495642  0.23886805  0.29916852    -0.74600
O106        O  0.18192783  0.33759118  0.30047682    -0.73400
Cu107      Cu  0.24191249  0.38031594  0.30319663     1.04600
Cu108      Cu  0.21743279  0.28390865  0.29966377     1.04300
C109        C  0.18299233  0.39835934  0.30185272     0.92900
C110        C  0.27744431  0.27051782  0.30076367     0.92000
C111        C  0.23318764  0.34841054  0.27587715     0.84200
C112        C  0.22690875  0.31110794  0.32684856     0.90400
O113        O  0.20889160  0.82189562  0.82132038    -0.73300
O114        O  0.21110498  0.86968639  0.78406956    -0.74300
O115        O  0.24861128  0.80941511  0.80116106    -0.62900
O116        O  0.17201360  0.88842851  0.80430468    -0.71300
O117        O  0.19237803  0.97986470  0.80930088    -0.70900
O118        O  0.26632898  0.90350954  0.80640451    -0.62100
O119        O  0.23052520  0.96291590  0.78841503    -0.74600
O120        O  0.22748219  0.91414978  0.82714626    -0.73400
Cu121      Cu  0.20941671  0.84417962  0.80257303     1.04600
Cu122      Cu  0.22976983  0.94339496  0.80803870     1.04300
C123        C  0.21795826  0.85886300  0.83017462     0.92900
C124        C  0.22152550  0.92203896  0.78012600     0.92000
C125        C  0.26960922  0.84567755  0.80307238     0.84200
C126        C  0.17047234  0.94782517  0.80716962     0.90400
O127        O  0.27251580  0.93573096  0.67682550    -0.73300
O128        O  0.19553993  0.01368320  0.67946313    -0.74300
O129        O  0.23426483  0.96173258  0.69738915    -0.62900
O130        O  0.23396285  0.99241924  0.65899873    -0.71300
O131        O  0.21584407  0.89695163  0.65540210    -0.70900
O132        O  0.21569749  0.86614887  0.69451749    -0.62100
O133        O  0.17836219  0.91681596  0.67628805    -0.74600
O134        O  0.25294940  0.84133138  0.67378574    -0.73400
Cu135      Cu  0.23484360  0.97923637  0.67825159     1.04600
Cu136      Cu  0.21516159  0.87704905  0.67485929     1.04300
C137        C  0.27461298  0.87541810  0.67500529     0.92900
C138        C  0.17477291  0.97591398  0.67850440     0.92000
C139        C  0.22449023  0.91014385  0.70212557     0.84200
C140        C  0.22451349  0.95084173  0.65110573     0.90400
O141        O  0.42184349  0.61813225  0.80227462    -0.73300
O142        O  0.49870938  0.55481254  0.80446347    -0.74300
O143        O  0.46095179  0.60940323  0.82273930    -0.62900
O144        O  0.45968665  0.56921059  0.78383434    -0.71300
O145        O  0.47590032  0.66637169  0.78007697    -0.70900
O146        O  0.47626880  0.70627640  0.81787199    -0.62100
O147        O  0.51568355  0.65098720  0.80037517    -0.74600
O148        O  0.43668582  0.71587063  0.79782189    -0.73400
Cu149      Cu  0.45986811  0.58440905  0.80349209     1.04600
Cu150      Cu  0.47679518  0.68815075  0.79888875     1.04300
C151        C  0.41680771  0.67643895  0.79976772     0.92900
C152        C  0.51941754  0.59149362  0.80271665     0.92000
C153        C  0.46804543  0.66570803  0.82629441     0.84200
C154        C  0.46717512  0.61303306  0.77581212     0.90400
O155        O  0.41199463  0.59253571  0.67342175    -0.73300
O156        O  0.49134283  0.52566212  0.67548132    -0.74300
O157        O  0.45212076  0.57427797  0.69345050    -0.62900
O158        O  0.45122539  0.53765085  0.65544464    -0.71300
O159        O  0.46699112  0.63448343  0.65088835    -0.70900
O160        O  0.46808007  0.67184233  0.68989159    -0.62100
O161        O  0.50586466  0.62406736  0.67144236    -0.74600
O162        O  0.42946558  0.68821305  0.66934586    -0.73400
Cu163      Cu  0.45097578  0.55411778  0.67454661     1.04600
Cu164      Cu  0.46801742  0.65798602  0.67020662     1.04300
C165        C  0.40860311  0.65246112  0.67137649     0.92900
C166        C  0.51111567  0.56587682  0.67394361     0.92000
C167        C  0.46068572  0.62754572  0.69782345     0.84200
C168        C  0.45972162  0.57860499  0.64715032     0.90400
O169        O  0.76300035  0.41135658  0.67668142    -0.73300
O170        O  0.68221318  0.46219342  0.67768238    -0.74300
O171        O  0.72120123  0.41611128  0.69599588    -0.62900
O172        O  0.72424828  0.46138110  0.65856061    -0.71300
O173        O  0.71279428  0.36267740  0.65305967    -0.70900
O174        O  0.70851805  0.31704430  0.69146625    -0.62100
O175        O  0.67085730  0.36305539  0.67247225    -0.74600
O176        O  0.75016222  0.31260336  0.67194849    -0.73400
Cu177      Cu  0.72311217  0.44112531  0.67741166     1.04600
Cu178      Cu  0.71018946  0.33533434  0.67204611     1.04300
C179        C  0.76920065  0.35325348  0.67419367     0.92900
C180        C  0.66376630  0.42003861  0.67517553     0.92000
C181        C  0.71418200  0.36053886  0.69980064     0.84200
C182        C  0.71899110  0.42003478  0.64983043     0.90400
O183        O  0.69952795  0.26370088  0.81925296    -0.73300
O184        O  0.69957263  0.30564611  0.78157037    -0.74300
O185        O  0.73819429  0.25071616  0.79896887    -0.62900
O186        O  0.66072981  0.32260769  0.80199992    -0.71300
O187        O  0.67892546  0.41754422  0.80607230    -0.70900
O188        O  0.75518420  0.34632060  0.80352193    -0.62100
O189        O  0.71758584  0.40085738  0.78557258    -0.74600
O190        O  0.71653476  0.35913428  0.82401506    -0.73400
Cu191      Cu  0.69877762  0.28246590  0.80031574     1.04600
Cu192      Cu  0.71755304  0.38440011  0.80497532     1.04300
C193        C  0.70875865  0.30336857  0.82757821     0.92900
C194        C  0.70912421  0.35870767  0.77748614     0.92000
C195        C  0.75895551  0.28766003  0.80081758     0.84200
C196        C  0.65774630  0.38223415  0.80429028     0.90400
O197        O  0.92396902  0.12572219  0.67385475    -0.73300
O198        O  0.00512471  0.08049937  0.67651301    -0.74300
O199        O  0.96329311  0.11569215  0.69417677    -0.62900
O200        O  0.96592120  0.08600905  0.65618837    -0.71300
O201        O  0.97600163  0.18741289  0.65222823    -0.70900
O202        O  0.97614051  0.21635646  0.69152424    -0.62100
O203        O  0.01606591  0.18143884  0.67257792    -0.74600
O204        O  0.93623101  0.22676806  0.67117300    -0.73400
Cu205      Cu  0.96414140  0.09857542  0.67526398     1.04600
Cu206      Cu  0.97643373  0.20668855  0.67174019     1.04300
C207        C  0.91741349  0.18446997  0.67235333     0.92900
C208        C  0.02338426  0.12418708  0.67494752     0.92000
C209        C  0.96982679  0.16945149  0.69901697     0.84200
C210        C  0.97150548  0.13061693  0.64814905     0.90400
O211        O  0.97950331  0.18572163  0.78166900    -0.73300
O212        O  0.97990320  0.21129060  0.81992798    -0.74300
O213        O  0.01696309  0.15238523  0.80197641    -0.62900
O214        O  0.94194771  0.23998493  0.79979152    -0.71300
O215        O  0.92244170  0.14525978  0.80264125    -0.70900
O216        O  0.99520491  0.05988445  0.80429859    -0.62100
O217        O  0.95985691  0.11737619  0.82313262    -0.74600
O218        O  0.95840150  0.09245401  0.78389293    -0.73400
Cu219      Cu  0.98040717  0.20054556  0.80075732     1.04600
Cu220      Cu  0.95832369  0.10046703  0.80360847     1.04300
C221        C  0.96860976  0.13630586  0.77660270     0.92900
C222        C  0.96961553  0.16977177  0.82761773     0.92000
C223        C  0.01759846  0.09156737  0.80328526     0.84200
C224        C  0.92023179  0.20518274  0.80089313     0.90400
O225        O  0.70718978  0.51405786  0.55091629    -0.73300
O226        O  0.78276857  0.59617608  0.55538081    -0.74300
O227        O  0.74271441  0.53908371  0.57199715    -0.62900
O228        O  0.74767672  0.56617063  0.53406974    -0.71300
O229        O  0.72631311  0.65952939  0.53548487    -0.70900
O230        O  0.72319554  0.63376657  0.57492888    -0.62100
O231        O  0.76183299  0.68991608  0.55700682    -0.74600
O232        O  0.68751023  0.60875327  0.55346913    -0.73400
Cu233      Cu  0.74585970  0.55084858  0.55302057     1.04600
Cu234      Cu  0.72411790  0.65157045  0.55531144     1.04300
C235        C  0.68536995  0.54888618  0.55162574     0.92900
C236        C  0.78404144  0.65681783  0.55678552     0.92000
C237        C  0.73172969  0.58019492  0.57949439     0.84200
C238        C  0.73725833  0.61518606  0.52859157     0.90400
O239        O  0.76722940  0.64419964  0.42801079    -0.73300
O240        O  0.69189482  0.57527778  0.42311699    -0.74300
O241        O  0.73322175  0.62317946  0.40580228    -0.62900
O242        O  0.72565945  0.60196342  0.44510811    -0.71300
O243        O  0.70747348  0.69902614  0.44600151    -0.70900
O244        O  0.71614982  0.72083428  0.40785297    -0.62100
O245        O  0.67308713  0.67153687  0.42422624    -0.74600
O246        O  0.75102584  0.74289399  0.42960837    -0.73400
Cu247      Cu  0.73000874  0.60773628  0.42542113     1.04600
Cu248      Cu  0.71124623  0.71196630  0.42693923     1.04300
C249        C  0.77138791  0.70344952  0.42976516     0.92900
C250        C  0.67049789  0.61090802  0.42310114     0.92000
C251        C  0.72630920  0.67693017  0.40074692     0.84200
C252        C  0.71567559  0.64842560  0.45172259     0.90400
O253        O  0.93181114  0.89912737  0.42294966    -0.73300
O254        O  0.01067864  0.95123100  0.42206185    -0.74300
O255        O  0.97351198  0.89963087  0.40335323    -0.62900
O256        O  0.96923846  0.94584061  0.44177775    -0.71300
O257        O  0.98323741  0.84782580  0.44655888    -0.70900
O258        O  0.98472852  0.80097290  0.40916213    -0.62100
O259        O  0.02458917  0.85300526  0.42670472    -0.74600
O260        O  0.94336204  0.80091398  0.42888709    -0.73400
Cu261      Cu  0.97094128  0.92738283  0.42233097     1.04600
Cu262      Cu  0.98449226  0.82226205  0.42799572     1.04300
C263        C  0.92477580  0.84286296  0.42627518     0.92900
C264        C  0.03020372  0.91152105  0.42416188     0.92000
C265        C  0.97946508  0.84197382  0.40030015     0.84200
C266        C  0.97524010  0.90280435  0.45023815     0.90400
O267        O  0.97798251  0.91438165  0.57435296    -0.73300
O268        O  0.97532923  0.86566031  0.53621958    -0.74300
O269        O  0.01407351  0.92565235  0.55274020    -0.62900
O270        O  0.93926264  0.85011963  0.55791033    -0.71300
O271        O  0.91926942  0.94260342  0.55325301    -0.70900
O272        O  0.99568486  0.01994705  0.54810197    -0.62100
O273        O  0.95622730  0.95954752  0.53187117    -0.74600
O274        O  0.95871726  0.00737331  0.56939824    -0.73400
Cu275      Cu  0.97721613  0.88568382  0.55549875     1.04600
Cu276      Cu  0.95668384  0.98554421  0.55051276     1.04300
C277        C  0.96936734  0.96963611  0.57780316     0.92900
C278        C  0.96591033  0.90631607  0.52797655     0.92000
C279        C  0.01700880  0.98412401  0.54960777     0.84200
C280        C  0.91737215  0.88330994  0.55622145     0.90400
O281        O  0.19502472  0.06268460  0.42235681    -0.73300
O282        O  0.27250719  0.13137934  0.42350122    -0.74300
O283        O  0.23502417  0.08334677  0.44251080    -0.62900
O284        O  0.23253376  0.11397029  0.40340801    -0.71300
O285        O  0.21628333  0.21112988  0.40714985    -0.70900
O286        O  0.21827493  0.18064557  0.44549090    -0.62100
O287        O  0.25612599  0.22880348  0.42683002    -0.74600
O288        O  0.17827785  0.15980472  0.42557574    -0.73400
Cu289      Cu  0.23428407  0.09428132  0.42282726     1.04600
Cu290      Cu  0.21659739  0.19825714  0.42638525     1.04300
C291        C  0.17434514  0.10010555  0.42377483     0.92900
C292        C  0.27663976  0.19086178  0.42523977     0.92000
C293        C  0.22736017  0.12820665  0.45017250     0.84200
C294        C  0.22454562  0.16857810  0.39918438     0.90400
O295        O  0.19969073  0.03411575  0.54984467    -0.73300
O296        O  0.27518670  0.11845445  0.55393404    -0.74300
O297        O  0.23628644  0.05603246  0.57101334    -0.62900
O298        O  0.23854880  0.09220256  0.53280976    -0.71300
O299        O  0.21803539  0.18564131  0.53577707    -0.70900
O300        O  0.21623677  0.14950472  0.57467375    -0.62100
O301        O  0.25376777  0.21052965  0.55718251    -0.74600
O302        O  0.18012064  0.12835772  0.55318023    -0.73400
Cu303      Cu  0.23823577  0.07198563  0.55181639     1.04600
Cu304      Cu  0.21639951  0.17171324  0.55535385     1.04300
C305        C  0.17794087  0.06898694  0.55076902     0.92900
C306        C  0.27616672  0.17874159  0.55596825     0.92000
C307        C  0.22559794  0.09606636  0.57889481     0.84200
C308        C  0.22827874  0.14349839  0.52813848     0.90400
O309        O  0.42972325  0.38529131  0.55025484    -0.73300
O310        O  0.50366360  0.47817355  0.54855982    -0.74300
O311        O  0.46954755  0.41305668  0.53036812    -0.62900
O312        O  0.46365317  0.45414773  0.56820477    -0.71300
O313        O  0.48441058  0.36335415  0.57352620    -0.70900
O314        O  0.49200733  0.32342361  0.53487486    -0.62100
O315        O  0.52445162  0.38721211  0.55371948    -0.74600
O316        O  0.45223582  0.29552940  0.55463219    -0.73400
Cu317      Cu  0.46580352  0.43568487  0.54918481     1.04600
Cu318      Cu  0.48896288  0.33920551  0.55437807     1.04300
C319        C  0.42952560  0.32519254  0.55260941     0.92900
C320        C  0.52584534  0.44635485  0.55086632     0.92000
C321        C  0.48213488  0.36300525  0.52651641     0.84200
C322        C  0.47330860  0.41643029  0.57687596     0.90400
O323        O  0.49995116  0.26339561  0.40627513    -0.73300
O324        O  0.49496620  0.30152015  0.44442706    -0.74300
O325        O  0.45951396  0.24156099  0.42593344    -0.62900
O326        O  0.53495905  0.32637311  0.42470688    -0.71300
O327        O  0.51464440  0.41891143  0.42039126    -0.70900
O328        O  0.44065157  0.33527142  0.42123354    -0.62100
O329        O  0.47483031  0.39430131  0.44015235    -0.74600
O330        O  0.48092864  0.35687725  0.40149647    -0.73400
Cu331      Cu  0.49809576  0.27998644  0.42547790     1.04600
Cu332      Cu  0.47709665  0.37949902  0.42064562     1.04300
C333        C  0.49112473  0.30343091  0.39782684     0.92900
C334        C  0.48404725  0.35340426  0.44840234     0.92000
C335        C  0.43803174  0.27601072  0.42379014     0.84200
C336        C  0.53657436  0.38646062  0.42249855     0.90400
O337        O  0.26033343  0.61251379  0.92128982    -0.73300
O338        O  0.18292582  0.55498344  0.91891092    -0.74300
O339        O  0.22008707  0.61456377  0.90107098    -0.62900
O340        O  0.22274295  0.55897868  0.93930694    -0.71300
O341        O  0.20735061  0.65511637  0.94452741    -0.70900
O342        O  0.20610878  0.71012832  0.90750135    -0.62100
O343        O  0.16673217  0.64992945  0.92449759    -0.74600
O344        O  0.24709087  0.70905546  0.92745093    -0.73400
Cu345      Cu  0.22192803  0.58197036  0.91989635     1.04600
Cu346      Cu  0.20624286  0.68443603  0.92616855     1.04300
C347        C  0.26638034  0.66872169  0.92491901     0.92900
C348        C  0.16253613  0.59137837  0.92148553     0.92000
C349        C  0.21314483  0.67226637  0.89838961     0.84200
C350        C  0.21561450  0.59987744  0.94797455     0.90400
O351        O  0.21533035  0.63779369  0.03412900    -0.73300
O352        O  0.22178648  0.59962844  0.07291497    -0.74300
O353        O  0.25455902  0.66535560  0.05407611    -0.62900
O354        O  0.18209510  0.57714219  0.05306407    -0.71300
O355        O  0.20200897  0.48486605  0.04830019    -0.70900
O356        O  0.27692536  0.57554370  0.04979697    -0.62100
O357        O  0.24221821  0.50807635  0.06798280    -0.74600
O358        O  0.23697814  0.54687947  0.02995587    -0.73400
Cu359      Cu  0.21782473  0.62313529  0.05370979     1.04600
Cu360      Cu  0.24040727  0.52571243  0.04886550     1.04300
C361        C  0.22472041  0.59709849  0.02592133     0.92900
C362        C  0.23245520  0.54630978  0.07647506     0.92000
C363        C  0.27722550  0.63570297  0.05209680     0.84200
C364        C  0.18010831  0.51800630  0.05044721     0.90400
O365        O  0.70785031  0.17882530  0.90520231    -0.73300
O366        O  0.70733005  0.15091543  0.94302246    -0.74300
O367        O  0.74500926  0.20804904  0.92545157    -0.62900
O368        O  0.67097463  0.11663058  0.92252683    -0.71300
O369        O  0.69382147  0.02546415  0.92029568    -0.70900
O370        O  0.76576745  0.11503893  0.92226688    -0.62100
O371        O  0.73012219  0.05966307  0.94093715    -0.74600
O372        O  0.72883952  0.08641406  0.90156057    -0.73400
Cu373      Cu  0.70695154  0.16664469  0.92412627     1.04600
Cu374      Cu  0.73033797  0.06826189  0.92114520     1.04300
C375        C  0.71862897  0.13909226  0.89734880     0.92900
C376        C  0.71898924  0.10252313  0.94814760     0.92000
C377        C  0.76720419  0.17480391  0.92430923     0.84200
C378        C  0.67103394  0.05587992  0.92113597     0.90400
O379        O  0.78674385  0.02492825  0.05067356    -0.73300
O380        O  0.70974693  0.94739306  0.04695200    -0.74300
O381        O  0.75039349  0.99678362  0.02970535    -0.62900
O382        O  0.74684806  0.97058691  0.06785078    -0.71300
O383        O  0.72861586  0.06653593  0.07078609    -0.70900
O384        O  0.73072483  0.09194595  0.03151934    -0.62100
O385        O  0.69194819  0.04388035  0.04969050    -0.74600
O386        O  0.76675383  0.11956997  0.05265744    -0.73400
Cu387      Cu  0.74912284  0.98159767  0.04872219     1.04600
Cu388      Cu  0.72890098  0.08384177  0.05124812     1.04300
C389        C  0.78860547  0.08549215  0.05215243     0.92900
C390        C  0.68862555  0.98440595  0.04780768     0.92000
C391        C  0.74088588  0.04734280  0.02444801     0.84200
C392        C  0.73729304  0.01329374  0.07542987     0.90400
O393        O  0.49681843  0.94430378  0.91706058    -0.73300
O394        O  0.42235802  0.87451604  0.92251779    -0.74300
O395        O  0.46268798  0.92492695  0.93945855    -0.62900
O396        O  0.45717577  0.88690959  0.90028277    -0.71300
O397        O  0.47529915  0.79187732  0.90444732    -0.70900
O398        O  0.48090041  0.82872367  0.94203904    -0.62100
O399        O  0.43883130  0.77718418  0.92596764    -0.74600
O400        O  0.51654313  0.85022226  0.92043194    -0.73400
Cu401      Cu  0.45920649  0.91103549  0.91968276     1.04600
Cu402      Cu  0.47859426  0.80870164  0.92331010     1.04300
C403        C  0.51851916  0.91008367  0.91793350     0.92900
C404        C  0.41832138  0.81613294  0.92525680     0.92000
C405        C  0.47237323  0.88085511  0.94692336     0.84200
C406        C  0.46523919  0.83181402  0.89635359     0.90400
O407        O  0.48840780  0.81639720  0.07133976    -0.73300
O408        O  0.48806606  0.79484467  0.03161040    -0.74300
O409        O  0.52481807  0.84478900  0.05035520    -0.62900
O410        O  0.45204673  0.75968181  0.05244960    -0.71300
O411        O  0.42974485  0.85151639  0.05031577    -0.70900
O412        O  0.50519863  0.93977535  0.04802600    -0.62100
O413        O  0.46682438  0.88822472  0.02994252    -0.74600
O414        O  0.46766269  0.90961888  0.06833213    -0.73400
Cu415      Cu  0.48893549  0.80057099  0.05154449     1.04600
Cu416      Cu  0.46650659  0.90040826  0.04911162     1.04300
C417        C  0.47870486  0.86873493  0.07595122     0.92900
C418        C  0.47782151  0.83980450  0.02455194     0.92000
C419        C  0.52698955  0.90473194  0.04873865     0.84200
C420        C  0.42938009  0.79053728  0.05150478     0.90400
O421        O  0.98943205  0.28192836  0.94540603    -0.73300
O422        O  0.98426604  0.26261840  0.90723479    -0.74300
O423        O  0.02442369  0.31496617  0.92435591    -0.62900
O424        O  0.94866124  0.23427480  0.92807315    -0.71300
O425        O  0.92983059  0.33035230  0.92623968    -0.70900
O426        O  0.00437185  0.40998732  0.92326729    -0.62100
O427        O  0.96554445  0.35870113  0.90501873    -0.74600
O428        O  0.96923525  0.37682965  0.94459763    -0.73400
Cu429      Cu  0.98741503  0.27032957  0.92632996     1.04600
Cu430      Cu  0.96659469  0.37248883  0.92473428     1.04300
C431        C  0.98011419  0.33108768  0.95119426     0.92900
C432        C  0.97383118  0.30598736  0.90003434     0.92000
C433        C  0.02622477  0.37574132  0.92331322     0.84200
C434        C  0.92717483  0.27017634  0.92748299     0.90400
O435        O  0.92223935  0.37562766  0.05491523    -0.73300
O436        O  0.99803978  0.45916631  0.05284470    -0.74300
O437        O  0.95836079  0.41460267  0.03468402    -0.62900
O438        O  0.96123979  0.42521699  0.07312198    -0.71300
O439        O  0.98075586  0.32977667  0.07477716    -0.70900
O440        O  0.97884938  0.31996320  0.03500252    -0.62100
O441        O  0.01726894  0.36326033  0.05395450    -0.74600
O442        O  0.94302367  0.28141232  0.05567279    -0.73400
Cu443      Cu  0.95924199  0.42180741  0.05388818     1.04600
Cu444      Cu  0.98063128  0.32014254  0.05490332     1.04300
C445        C  0.92087011  0.31460701  0.05542071     0.92900
C446        C  0.01968710  0.42360144  0.05301357     0.92000
C447        C  0.96826943  0.36684560  0.02863191     0.84200
C448        C  0.97158954  0.38088348  0.08011415     0.90400
C449        C  0.96755831  0.36777889  0.01418199    -0.05600
C450        C  0.95228270  0.41543064  0.00762014    -0.05500
C451        C  0.95211968  0.41896840  0.99401312    -0.23700
C452        C  0.96730042  0.37504143  0.98665543     0.18500
C453        C  0.98277714  0.32702707  0.99314094     0.15700
C454        C  0.98274016  0.32352041  0.00683918    -0.18700
C455        C  0.99802800  0.28318936  0.98581302    -0.20600
C456        C  0.99753393  0.28598023  0.97221833    -0.13100
C457        C  0.98183855  0.33276598  0.96562098     0.03600
C458        C  0.96701767  0.37785338  0.97293643    -0.25300
H459        H  0.94038128  0.45031807  0.01301884     0.08600
H460        H  0.94012064  0.45608090  0.98925520     0.12200
H461        H  0.99475398  0.28691229  0.01176054     0.12200
H462        H  0.01012770  0.24629309  0.99058589     0.11900
H463        H  0.00931491  0.25075276  0.96685343     0.12500
H464        H  0.95479974  0.41401399  0.96798908     0.14400
C465        C  0.47311140  0.88703238  0.96136614    -0.05600
C466        C  0.46081136  0.93886630  0.96779625    -0.05500
C467        C  0.45949639  0.94015212  0.98147332    -0.23700
C468        C  0.47032642  0.88945023  0.98892880     0.18500
C469        C  0.48318498  0.83778944  0.98256719     0.15700
C470        C  0.48467195  0.83718055  0.96890744    -0.18700
C471        C  0.49397321  0.78695048  0.98995038    -0.20600
C472        C  0.49194434  0.78703409  0.00357112    -0.13100
C473        C  0.47912209  0.83797236  0.01006503     0.03600
C474        C  0.46838066  0.88922783  0.00261633    -0.25300
H475        H  0.45168946  0.97765381  0.96226246     0.08600
H476        H  0.44961549  0.98029975  0.98621287     0.12200
H477        H  0.49433025  0.79676111  0.96415218     0.12200
H478        H  0.50392539  0.74696943  0.98518185     0.11900
H479        H  0.50054871  0.74735525  0.00902317     0.12500
H480        H  0.45854414  0.92918747  0.00744936     0.14400
C481        C  0.65994560  0.95965226  0.04676250    -0.05600
C482        C  0.65481370  0.89496312  0.04426789    -0.05500
C483        C  0.62760002  0.87212447  0.04367167    -0.23700
C484        C  0.60510270  0.91360185  0.04561151     0.18500
C485        C  0.60995571  0.97889549  0.04792048     0.15700
C486        C  0.63728441  0.00146567  0.04844792    -0.18700
C487        C  0.58740154  0.02033180  0.04984290    -0.20600
C488        C  0.56021529  0.99692708  0.04976049    -0.13100
C489        C  0.55523906  0.93177440  0.04780146     0.03600
C490        C  0.57785382  0.89060764  0.04552243    -0.25300
H491        H  0.67182456  0.86193605  0.04287100     0.08600
H492        H  0.62415444  0.82188838  0.04184528     0.12200
H493        H  0.64084284  0.05161107  0.05034613     0.12200
H494        H  0.59081392  0.07063758  0.05159728     0.11900
H495        H  0.54317510  0.02941527  0.05154896     0.12500
H496        H  0.57431888  0.84023242  0.04386372     0.14400
C497        C  0.89374016  0.28125238  0.05544225    -0.05600
C498        C  0.86877361  0.31574269  0.05501513    -0.05500
C499        C  0.84332133  0.28394672  0.05449471    -0.23700
C500        C  0.84237981  0.21706569  0.05433966     0.18500
C501        C  0.86727095  0.18173755  0.05485151     0.15700
C502        C  0.89274651  0.21399232  0.05545139    -0.18700
C503        C  0.86624500  0.11478842  0.05460875    -0.20600
C504        C  0.84074464  0.08310906  0.05375540    -0.13100
C505        C  0.81585624  0.11785225  0.05320084     0.03600
C506        C  0.81694051  0.18501687  0.05356499    -0.25300
H507        H  0.86890746  0.36737210  0.05497395     0.08600
H508        H  0.82436792  0.31170307  0.05410228     0.12200
H509        H  0.91180439  0.18656539  0.05574745     0.12200
H510        H  0.88517162  0.08694466  0.05499763     0.11900
H511        H  0.84050755  0.03149882  0.05352221     0.12500
H512        H  0.79796070  0.21269453  0.05311936     0.14400
C513        C  0.79502532  0.20401679  0.92537008    -0.05600
C514        C  0.79862406  0.27042027  0.92514918    -0.05500
C515        C  0.82527060  0.29673769  0.92578302    -0.23700
C516        C  0.84867406  0.25699292  0.92671410     0.18500
C517        C  0.84519471  0.19022395  0.92711665     0.15700
C518        C  0.81850494  0.16430068  0.92643153    -0.18700
C519        C  0.86847621  0.15031887  0.92808623    -0.20600
C520        C  0.89512100  0.17630616  0.92846219    -0.13100
C521        C  0.89893899  0.24261275  0.92788157     0.03600
C522        C  0.87550071  0.28275397  0.92711617    -0.25300
H523        H  0.78089575  0.30192200  0.92432427     0.08600
H524        H  0.82758730  0.34810223  0.92547080     0.12200
H525        H  0.81608398  0.11292475  0.92670628     0.12200
H526        H  0.86609254  0.09896724  0.92842880     0.11900
H527        H  0.91275739  0.14440314  0.92903056     0.12500
H528        H  0.87808459  0.33404818  0.92665893     0.14400
C529        C  0.64490611  0.01930261  0.92063059    -0.05600
C530        C  0.64490512  0.95421046  0.92402941    -0.05500
C531        C  0.62043029  0.91870440  0.92372358    -0.23700
C532        C  0.59551799  0.94742860  0.91986160     0.18500
C533        C  0.59547726  0.01251533  0.91612041     0.15700
C534        C  0.62007988  0.04816549  0.91663577    -0.18700
C535        C  0.57075224  0.04113020  0.91205706    -0.20600
C536        C  0.54612622  0.00647967  0.91216594    -0.13100
C537        C  0.54560407  0.94241761  0.91637657     0.03600
C538        C  0.57057941  0.91265229  0.91994063    -0.25300
H539        H  0.66384783  0.93085038  0.92713747     0.08600
H540        H  0.62097030  0.86893893  0.92658948     0.12200
H541        H  0.61995299  0.09808599  0.91384760     0.12200
H542        H  0.57034185  0.09066899  0.90901852     0.11900
H543        H  0.52726262  0.03064640  0.90921823     0.12500
H544        H  0.57048814  0.86338992  0.92317577     0.14400
C545        C  0.71991570  0.09866785  0.96253179    -0.05600
C546        C  0.70549272  0.14430540  0.96997613    -0.05500
C547        C  0.70736170  0.14455489  0.98353909    -0.23700
C548        C  0.72366451  0.09912550  0.98995875     0.18500
C549        C  0.73814713  0.05274806  0.98260588     0.15700
C550        C  0.73615342  0.05269614  0.96893523    -0.18700
C551        C  0.75437070  0.00720067  0.98906447    -0.20600
C552        C  0.75577668  0.00679164  0.00266339    -0.13100
C553        C  0.74112002  0.05214770  0.01006913     0.03600
C554        C  0.72540033  0.09885351  0.00361999    -0.25300
H555        H  0.69283066  0.18047058  0.96531043     0.08600
H556        H  0.69607937  0.18035174  0.98899779     0.12200
H557        H  0.74749826  0.01759829  0.96331127     0.12200
H558        H  0.76570040  0.97144129  0.98361878     0.11900
H559        H  0.76813506  0.97027791  0.00739569     0.12500
H560        H  0.71390849  0.13380873  0.00921745     0.14400
C561        C  0.15199615  0.48944056  0.04998235    -0.05600
C562        C  0.14808637  0.42366312  0.04825481    -0.05500
C563        C  0.12130490  0.39774342  0.04825532    -0.23700
C564        C  0.09802523  0.43724265  0.04996502     0.18500
C565        C  0.10173413  0.50352706  0.05146603     0.15700
C566        C  0.12856644  0.52905327  0.05145961    -0.18700
C567        C  0.07856118  0.54327076  0.05308084    -0.20600
C568        C  0.05185655  0.51747171  0.05340182    -0.13100
C569        C  0.04785958  0.45148073  0.05216845     0.03600
C570        C  0.07113321  0.41164086  0.05033603    -0.25300
H571        H  0.16571415  0.39220357  0.04704693     0.08600
H572        H  0.11881205  0.34677406  0.04703139     0.12200
H573        H  0.13113130  0.58001647  0.05270570     0.12200
H574        H  0.08110666  0.59428891  0.05420544     0.11900
H575        H  0.03435587  0.54911379  0.05480627     0.12500
H576        H  0.06838225  0.36063332  0.04926708     0.14400
C577        C  0.40308066  0.75360697  0.05152723    -0.05600
C578        C  0.40408244  0.68684057  0.05000606    -0.05500
C579        C  0.37986197  0.65043768  0.04979668    -0.23700
C580        C  0.35397782  0.67977314  0.05119344     0.18500
C581        C  0.35261933  0.74672543  0.05284212     0.15700
C582        C  0.37712997  0.78331069  0.05292557    -0.18700
C583        C  0.32673268  0.77592981  0.05436978    -0.20600
C584        C  0.30250928  0.73945148  0.05419158    -0.13100
C585        C  0.30350025  0.67281341  0.05243234     0.03600
C586        C  0.32946797  0.64326778  0.05095306    -0.25300
H587        H  0.42372214  0.66242400  0.04883693     0.08600
H588        H  0.38140746  0.59927948  0.04853118     0.12200
H589        H  0.37600531  0.83456838  0.05414463     0.12200
H590        H  0.32518334  0.82705570  0.05568440     0.11900
H591        H  0.28286664  0.76383455  0.05536849     0.12500
H592        H  0.33063223  0.59208062  0.04962621     0.14400
C593        C  0.38938027  0.79586275  0.92745344    -0.05600
C594        C  0.36909161  0.84267882  0.92994237    -0.05500
C595        C  0.34110660  0.82677446  0.93063455    -0.23700
C596        C  0.33275484  0.76373191  0.92876075     0.18500
C597        C  0.35301555  0.71579133  0.92672476     0.15700
C598        C  0.38127850  0.73201327  0.92622203    -0.18700
C599        C  0.34456762  0.65280192  0.92478463    -0.20600
C600        C  0.31640070  0.63784304  0.92442827    -0.13100
C601        C  0.29605869  0.68548404  0.92607973     0.03600
C602        C  0.30444592  0.74826207  0.92851727    -0.25300
H603        H  0.37480772  0.89226597  0.93111485     0.08600
H604        H  0.32596137  0.86408393  0.93230087     0.12200
H605        H  0.39672426  0.69563926  0.92429924     0.12200
H606        H  0.35970168  0.61531397  0.92327284     0.11900
H607        H  0.31057205  0.58874836  0.92268671     0.12500
H608        H  0.28901676  0.78529700  0.92986500     0.14400
C609        C  0.13440371  0.56296832  0.92130054    -0.05600
C610        C  0.11032705  0.60014409  0.92256108    -0.05500
C611        C  0.08414528  0.57105097  0.92285443    -0.23700
C612        C  0.08172340  0.50434190  0.92204988     0.18500
C613        C  0.10584221  0.46680498  0.92073909     0.15700
C614        C  0.13182603  0.49624247  0.92027195    -0.18700
C615        C  0.10371000  0.40020634  0.92011100    -0.20600
C616        C  0.07783850  0.37069593  0.92091151    -0.13100
C617        C  0.05360996  0.40724579  0.92224719     0.03600
C618        C  0.05571790  0.47433932  0.92271085    -0.25300
H619        H  0.11174577  0.65150122  0.92337165     0.08600
H620        H  0.06583565  0.60061057  0.92386823     0.12200
H621        H  0.15016369  0.46662070  0.91937964     0.12200
H622        H  0.12209693  0.37086122  0.91911692     0.11900
H623        H  0.07681651  0.31916437  0.92049441     0.12500
H624        H  0.03720755  0.50322177  0.92377776     0.14400
C625        C  0.21751719  0.58579907  0.96216224    -0.05600
C626        C  0.23009497  0.52982765  0.96687347    -0.05500
C627        C  0.23384258  0.52053290  0.98032541    -0.23700
C628        C  0.22515391  0.56717544  0.98927172     0.18500
C629        C  0.21198235  0.62290117  0.98463174     0.15700
C630        C  0.20811706  0.63159150  0.97118865    -0.18700
C631        C  0.20324252  0.66966683  0.99348931    -0.20600
C632        C  0.20764714  0.66159478  0.00687443    -0.13100
C633        C  0.22087124  0.60661806  0.01166866     0.03600
C634        C  0.22953323  0.55938363  0.00275435    -0.25300
H635        H  0.23756194  0.49392325  0.96016196     0.08600
H636        H  0.24390668  0.47733629  0.98371813     0.12200
H637        H  0.19825308  0.67500076  0.96776175     0.12200
H638        H  0.19306720  0.71266442  0.99005836     0.11900
H639        H  0.20061244  0.69841488  0.01348107     0.12500
H640        H  0.23959730  0.51642595  0.00628423     0.14400
C641        C  0.48542487  0.35214380  0.51228082    -0.05600
C642        C  0.50087583  0.30024320  0.50756796    -0.05500
C643        C  0.50408965  0.29081312  0.49412883    -0.23700
C644        C  0.49186510  0.33306055  0.48514919     0.18500
C645        C  0.47654132  0.38575147  0.48976505     0.15700
C646        C  0.47345871  0.39497371  0.50325427    -0.18700
C647        C  0.46439801  0.42818115  0.48081012    -0.20600
C648        C  0.46710244  0.41810109  0.46738224    -0.13100
C649        C  0.48197584  0.36538344  0.46264391     0.03600
C650        C  0.49449553  0.32323018  0.47164303    -0.25300
H651        H  0.51052048  0.26690472  0.51427206     0.08600
H652        H  0.51603011  0.25029187  0.49075936     0.12200
H653        H  0.46160872  0.43550488  0.50670097     0.12200
H654        H  0.45262497  0.46894002  0.48419125     0.11900
H655        H  0.45726579  0.45126637  0.46070342     0.12500
H656        H  0.50615345  0.28248056  0.46816059     0.14400
C657        C  0.30299263  0.21359897  0.55652827    -0.05600
C658        C  0.30296702  0.28010094  0.55846589    -0.05500
C659        C  0.32757578  0.31507479  0.55806665    -0.23700
C660        C  0.35288758  0.28443663  0.55577238     0.18500
C661        C  0.35339741  0.21746936  0.55411616     0.15700
C662        C  0.32847106  0.18243911  0.55448367    -0.18700
C663        C  0.37883647  0.18684135  0.55201062    -0.20600
C664        C  0.40343273  0.22209397  0.55154248    -0.13100
C665        C  0.40313251  0.28883350  0.55301044     0.03600
C666        C  0.37766261  0.31972485  0.55509317    -0.25300
H667        H  0.28375196  0.30563886  0.56008930     0.08600
H668        H  0.32675310  0.36625009  0.55944331     0.12200
H669        H  0.32888892  0.13131208  0.55298443     0.12200
H670        H  0.37973395  0.13561480  0.55073263     0.11900
H671        H  0.42276314  0.19702219  0.54990626     0.12500
H672        H  0.37715657  0.37101339  0.55635849     0.14400
C673        C  0.30529209  0.21602237  0.42517272    -0.05600
C674        C  0.30986947  0.28196327  0.42412470    -0.05500
C675        C  0.33676924  0.30620530  0.42357297    -0.23700
C676        C  0.35962335  0.26498420  0.42416985     0.18500
C677        C  0.35541720  0.19860322  0.42537880     0.15700
C678        C  0.32824741  0.17445197  0.42581042    -0.18700
C679        C  0.37847610  0.15774061  0.42611778    -0.20600
C680        C  0.40544001  0.18254312  0.42564531    -0.13100
C681        C  0.40975247  0.24852280  0.42433513     0.03600
C682        C  0.38661516  0.28932328  0.42359487    -0.25300
H683        H  0.29260347  0.31492299  0.42354563     0.08600
H684        H  0.33969379  0.35725091  0.42265813     0.12200
H685        H  0.32500409  0.12346991  0.42666284     0.12200
H686        H  0.37566179  0.10668934  0.42707391     0.11900
H687        H  0.42288866  0.15011463  0.42624163     0.12500
H688        H  0.38953830  0.34038070  0.42265726     0.14400
C689        C  0.22937584  0.12076393  0.46454746    -0.05600
C690        C  0.24004455  0.06461326  0.47014178    -0.05500
C691        C  0.24253860  0.05865871  0.48369635    -0.23700
C692        C  0.23437117  0.10873191  0.49190255     0.18500
C693        C  0.22366499  0.16544247  0.48640842     0.15700
C694        C  0.22125833  0.17110180  0.47280131    -0.18700
C695        C  0.21540871  0.21542624  0.49462191    -0.20600
C696        C  0.21732270  0.20889312  0.50818826    -0.13100
C697        C  0.22768125  0.15242803  0.51377740     0.03600
C698        C  0.23644708  0.10273664  0.50551203    -0.25300
H699        H  0.24657481  0.02531442  0.46403794     0.08600
H700        H  0.25080589  0.01482219  0.48776179     0.12200
H701        H  0.21307586  0.21487271  0.46865932     0.12200
H702        H  0.20719897  0.25932315  0.49055847     0.11900
H703        H  0.21043426  0.24782347  0.51430458     0.12500
H704        H  0.24443059  0.05876509  0.50965162     0.14400
C705        C  0.04543688  0.00965484  0.54800006    -0.05600
C706        C  0.05001931  0.07525515  0.54628161    -0.05500
C707        C  0.07702644  0.09940697  0.54582367    -0.23700
C708        C  0.09987989  0.05832952  0.54709426     0.18500
C709        C  0.09556043  0.99205116  0.54834505     0.15700
C710        C  0.06841840  0.96816635  0.54874163    -0.18700
C711        C  0.11845224  0.95096566  0.54952761    -0.20600
C712        C  0.14540207  0.97560077  0.54993366    -0.13100
C713        C  0.14984745  0.04166097  0.54919934     0.03600
C714        C  0.12693624  0.08261486  0.54749360    -0.25300
H715        H  0.03273391  0.10811128  0.54560691     0.08600
H716        H  0.08002804  0.15035885  0.54476441     0.12200
H717        H  0.06524858  0.91731691  0.54993528     0.12200
H718        H  0.11548152  0.89993056  0.55041723     0.11900
H719        H  0.16268593  0.94313841  0.55119222     0.12500
H720        H  0.13007877  0.13367345  0.54673766     0.14400
C721        C  0.05917644  0.93518493  0.42370508    -0.05600
C722        C  0.08188465  0.89332122  0.42303206    -0.05500
C723        C  0.10904127  0.91714548  0.42254389    -0.23700
C724        C  0.11392285  0.98320042  0.42287521     0.18500
C725        C  0.09118690  0.02551798  0.42354200     0.15700
C726        C  0.06411479  0.00136280  0.42387120    -0.18700
C727        C  0.09583952  0.09143310  0.42400873    -0.20600
C728        C  0.12283552  0.11542535  0.42399501    -0.13100
C729        C  0.14574397  0.07405925  0.42342428     0.03600
C730        C  0.14107607  0.00774224  0.42273092    -0.25300
H731        H  0.07864264  0.84225380  0.42280906     0.08600
H732        H  0.12622169  0.88392023  0.42201309     0.12200
H733        H  0.04684865  0.03439463  0.42444085     0.12200
H734        H  0.07858249  0.12448034  0.42450967     0.11900
H735        H  0.12575719  0.16655082  0.42448356     0.12500
H736        H  0.15851586  0.97517402  0.42228990     0.14400
C737        C  0.97223853  0.91466183  0.46440644    -0.05600
C738        C  0.96284639  0.97368079  0.46909927    -0.05500
C739        C  0.95895035  0.98305862  0.48248795    -0.23700
C740        C  0.96438251  0.93354280  0.49139003     0.18500
C741        C  0.97380284  0.87402456  0.48677805     0.15700
C742        C  0.97767596  0.86502384  0.47336276    -0.18700
C743        C  0.97933574  0.82453857  0.49566258    -0.20600
C744        C  0.97614382  0.83437650  0.50906406    -0.13100
C745        C  0.96715290  0.89367184  0.51378848     0.03600
C746        C  0.96092810  0.94281741  0.50483543    -0.25300
H747        H  0.95833805  0.01245814  0.46242057     0.08600
H748        H  0.95170644  0.02903095  0.48588010     0.12200
H749        H  0.98479705  0.81902236  0.46991631     0.12200
H750        H  0.98649708  0.77851393  0.49225941     0.11900
H751        H  0.98106946  0.79583626  0.51573638     0.12500
H752        H  0.95406982  0.98895286  0.50832323     0.14400
C753        C  0.80027167  0.72450775  0.43180014    -0.05600
C754        C  0.81983621  0.68069953  0.43671387    -0.05500
C755        C  0.84795811  0.69598696  0.43717608    -0.23700
C756        C  0.85714034  0.75514045  0.43256369     0.18500
C757        C  0.83753853  0.80044444  0.42802819     0.15700
C758        C  0.80914949  0.78517517  0.42783059    -0.18700
C759        C  0.84677061  0.85943648  0.42335029    -0.20600
C760        C  0.87509412  0.87287439  0.42287543    -0.13100
C761        C  0.89483206  0.82767293  0.42708776     0.03600
C762        C  0.88562221  0.76906260  0.43210624    -0.25300
H763        H  0.81341373  0.63378017  0.43996432     0.08600
H764        H  0.86258564  0.66084239  0.44078784     0.12200
H765        H  0.79423301  0.81908495  0.42397764     0.12200
H766        H  0.83212556  0.89482771  0.41985892     0.11900
H767        H  0.88153570  0.91870363  0.41904361     0.12500
H768        H  0.90055866  0.73406070  0.43550022     0.14400
C769        C  0.56379472  0.41931602  0.42251874    -0.05600
C770        C  0.58833830  0.38472678  0.42465521    -0.05500
C771        C  0.61394733  0.41571250  0.42494975    -0.23700
C772        C  0.61549512  0.48194731  0.42316972     0.18500
C773        C  0.59105995  0.51751421  0.42101576     0.15700
C774        C  0.56536286  0.48595498  0.42065302    -0.18700
C775        C  0.59280023  0.58400642  0.41938871    -0.20600
C776        C  0.61854664  0.61496385  0.42000467    -0.13100
C777        C  0.64295162  0.57981005  0.42212524     0.03600
C778        C  0.64113330  0.51312257  0.42363317    -0.25300
H779        H  0.58776387  0.33360466  0.42614567     0.08600
H780        H  0.63255667  0.38786217  0.42664429     0.12200
H781        H  0.54660988  0.51342517  0.41904171     0.12200
H782        H  0.57424537  0.61208535  0.41773450     0.11900
H783        H  0.61937040  0.66624559  0.41881277     0.12500
H784        H  0.65970746  0.48518368  0.42537953     0.14400
C785        C  0.65736036  0.52026925  0.55056565    -0.05600
C786        C  0.65411621  0.45376645  0.55037696    -0.05500
C787        C  0.62768976  0.42659004  0.55014205    -0.23700
C788        C  0.60399641  0.46542909  0.55005178     0.18500
C789        C  0.60687671  0.53239357  0.54993421     0.15700
C790        C  0.63353536  0.55941570  0.55019836    -0.18700
C791        C  0.58302881  0.57099289  0.54971940    -0.20600
C792        C  0.55656797  0.54336551  0.54982894    -0.13100
C793        C  0.55355380  0.47676364  0.55023449     0.03600
C794        C  0.57747849  0.43820492  0.55022513    -0.25300
H795        H  0.67202897  0.42259936  0.55064532     0.08600
H796        H  0.62578224  0.37511242  0.55017861     0.12200
H797        H  0.63567812  0.61085762  0.55026580     0.12200
H798        H  0.58484079  0.62248089  0.54957863     0.11900
H799        H  0.53849688  0.57407046  0.54980294     0.12500
H800        H  0.57552691  0.38671542  0.55040126     0.14400
C801        C  0.81115599  0.68985147  0.55798234    -0.05600
C802        C  0.83580238  0.65532576  0.55995136    -0.05500
C803        C  0.86134817  0.68682957  0.56066598    -0.23700
C804        C  0.86274911  0.75338310  0.55925993     0.18500
C805        C  0.83810780  0.78868169  0.55743079     0.15700
C806        C  0.81251732  0.75683051  0.55691831    -0.18700
C807        C  0.83952854  0.85512952  0.55585879    -0.20600
C808        C  0.86520725  0.88621864  0.55574669    -0.13100
C809        C  0.88993368  0.85154122  0.55733113     0.03600
C810        C  0.88841742  0.78502551  0.55932184    -0.25300
H811        H  0.83535033  0.60389428  0.56089110     0.08600
H812        H  0.88006128  0.65901925  0.56210518     0.12200
H813        H  0.79371575  0.78422814  0.55537505     0.12200
H814        H  0.82080150  0.88294114  0.55446326     0.11900
H815        H  0.86572046  0.93731757  0.55422142     0.12500
H816        H  0.90726410  0.75742183  0.56054864     0.14400
C817        C  0.71461334  0.64611639  0.46612430    -0.05600
C818        C  0.69802003  0.68992205  0.47299116    -0.05500
C819        C  0.69926799  0.69352244  0.48659136    -0.23700
C820        C  0.71737592  0.65386014  0.49357798     0.18500
C821        C  0.73384127  0.60905756  0.48675482     0.15700
C822        C  0.73213861  0.60497643  0.47311164    -0.18700
C823        C  0.75209668  0.56965731  0.49366595    -0.20600
C824        C  0.75378610  0.57383732  0.50720934    -0.13100
C825        C  0.73726149  0.61748507  0.51416355     0.03600
C826        C  0.71925077  0.65801044  0.50725053    -0.25300
H827        H  0.68433137  0.72225103  0.46781198     0.08600
H828        H  0.68640080  0.72798583  0.49161597     0.12200
H829        H  0.74524258  0.57155964  0.46791451     0.12200
H830        H  0.76496327  0.53529086  0.48861023     0.11900
H831        H  0.76785572  0.54195438  0.51227596     0.12500
H832        H  0.70622506  0.69137668  0.51249923     0.14400
C833        C  0.97121824  0.29267365  0.88594847    -0.05600
C834        C  0.97123005  0.34178081  0.87662836    -0.05500
C835        C  0.97070994  0.32724922  0.86329856    -0.23700
C836        C  0.96977002  0.26345963  0.85914889     0.18500
C837        C  0.96879041  0.21390553  0.86848329     0.15700
C838        C  0.96967399  0.22883403  0.88178134    -0.18700
C839        C  0.96720442  0.15019806  0.86436858    -0.20600
C840        C  0.96699303  0.13554566  0.85106348    -0.13100
C841        C  0.96876975  0.18432281  0.84170517     0.03600
C842        C  0.96996934  0.24830425  0.84583671    -0.25300
H843        H  0.97239967  0.39115330  0.87964085     0.08600
H844        H  0.97128906  0.36581031  0.85623905     0.12200
H845        H  0.96923663  0.19054263  0.88891865     0.12200
H846        H  0.96628312  0.11172002  0.87144000     0.11900
H847        H  0.96599138  0.08608793  0.84809449     0.12500
H848        H  0.97093578  0.28644441  0.83868062     0.14400
C849        C  0.97215019  0.99105928  0.59150727    -0.05600
C850        C  0.98071053  0.94821442  0.60127024    -0.05500
C851        C  0.98331944  0.96825668  0.61419296    -0.23700
C852        C  0.97754718  0.03161356  0.61757854     0.18500
C853        C  0.96960373  0.07575474  0.60783990     0.15700
C854        C  0.96684955  0.05514191  0.59486728    -0.18700
C855        C  0.96427550  0.13944784  0.61130330    -0.20600
C856        C  0.96595201  0.15863121  0.62438097    -0.13100
C857        C  0.97272199  0.11421448  0.63414929     0.03600
C858        C  0.97904935  0.05110476  0.63060809    -0.25300
H859        H  0.98515903  0.89892653  0.59894327     0.08600
H860        H  0.98961342  0.93401138  0.62156773     0.12200
H861        H  0.96059674  0.08901838  0.58741030     0.12200
H862        H  0.95834412  0.17408001  0.60394091     0.11900
H863        H  0.96100251  0.20742832  0.62690944     0.12500
H864        H  0.98469848  0.01663790  0.63806797     0.14400
C865        C  0.97061261  0.17525523  0.71340144    -0.05600
C866        C  0.98249038  0.22858956  0.71946575    -0.05500
C867        C  0.98479719  0.23104236  0.73307128    -0.23700
C868        C  0.97518025  0.18026472  0.74080764     0.18500
C869        C  0.96294105  0.12675895  0.73481091     0.15700
C870        C  0.96070131  0.12467662  0.72119523    -0.18700
C871        C  0.95323801  0.07604173  0.74252130    -0.20600
C872        C  0.95542065  0.07852143  0.75611336    -0.13100
C873        C  0.96741785  0.13165074  0.76220586     0.03600
C874        C  0.97745594  0.18222532  0.75443787    -0.25300
H875        H  0.99042988  0.26786204  0.71368990     0.08600
H876        H  0.99423158  0.27246993  0.73753777     0.12200
H877        H  0.95143026  0.08316245  0.71667433     0.12200
H878        H  0.94382321  0.03461739  0.73804290     0.11900
H879        H  0.94750691  0.03909781  0.76185409     0.12500
H880        H  0.98673741  0.22365795  0.75898221     0.14400
C881        C  0.71934975  0.15728684  0.88346024    -0.05600
C882        C  0.71937969  0.11193752  0.87343827    -0.05500
C883        C  0.71741506  0.13168423  0.86038940    -0.23700
C884        C  0.71566234  0.19693714  0.85727057     0.18500
C885        C  0.71668800  0.24268874  0.86732099     0.15700
C886        C  0.71852406  0.22256986  0.88028130    -0.18700
C887        C  0.71549386  0.30791166  0.86429082    -0.20600
C888        C  0.71297740  0.32788535  0.85134361    -0.13100
C889        C  0.71126089  0.28289204  0.84128762     0.03600
C890        C  0.71275043  0.21737066  0.84431205    -0.25300
H891        H  0.72004422  0.06149497  0.87570966     0.08600
H892        H  0.71687406  0.09602350  0.85276441     0.12200
H893        H  0.71899165  0.25805909  0.88795752     0.12200
H894        H  0.71640137  0.34343624  0.87193792     0.11900
H895        H  0.71204297  0.37844886  0.84920400     0.12500
H896        H  0.71193497  0.18227337  0.83657364     0.14400
C897        C  0.89205839  0.23269814  0.80025108    -0.05600
C898        C  0.88747305  0.29851180  0.80145365    -0.05500
C899        C  0.86039683  0.32270660  0.80160468    -0.23700
C900        C  0.83759101  0.28138444  0.80049703     0.18500
C901        C  0.84211298  0.21532205  0.79901146     0.15700
C902        C  0.86919544  0.19156580  0.79888551    -0.18700
C903        C  0.81947956  0.17381371  0.79783015    -0.20600
C904        C  0.79244338  0.19743211  0.79827766    -0.13100
C905        C  0.78759235  0.26291009  0.79993847     0.03600
C906        C  0.81035255  0.30476764  0.80096401    -0.25300
H907        H  0.90475191  0.33103403  0.80253343     0.08600
H908        H  0.85728379  0.37356813  0.80271777     0.12200
H909        H  0.87240807  0.14066674  0.79783082     0.12200
H910        H  0.82268429  0.12300309  0.79666024     0.11900
H911        H  0.77532402  0.16428329  0.79746023     0.12500
H912        H  0.80692678  0.35547974  0.80219544     0.14400
C913        C  0.72022600  0.43981549  0.63598648    -0.05600
C914        C  0.72029444  0.39430201  0.62598153    -0.05500
C915        C  0.72240324  0.41339210  0.61294860    -0.23700
C916        C  0.72422463  0.47833262  0.60972224     0.18500
C917        C  0.72363172  0.52469918  0.61966217     0.15700
C918        C  0.72178571  0.50512180  0.63273029    -0.18700
C919        C  0.72495281  0.58974968  0.61634183    -0.20600
C920        C  0.72708030  0.60863370  0.60324787    -0.13100
C921        C  0.72834821  0.56264543  0.59336228     0.03600
C922        C  0.72673072  0.49757776  0.59670080    -0.25300
H923        H  0.71912097  0.34389639  0.62823939     0.08600
H924        H  0.72272062  0.37735643  0.60539256     0.12200
H925        H  0.72151215  0.54084048  0.64035477     0.12200
H926        H  0.72441350  0.62592593  0.62386444     0.11900
H927        H  0.72828072  0.65890402  0.60087008     0.12500
H928        H  0.72726885  0.46163573  0.58911654     0.14400
C929        C  0.88806089  0.20493935  0.67223501    -0.05600
C930        C  0.86639855  0.16022599  0.67202866    -0.05500
C931        C  0.83875530  0.18049611  0.67224044    -0.23700
C932        C  0.83238061  0.24576622  0.67277523     0.18500
C933        C  0.85401989  0.29103036  0.67301540     0.15700
C934        C  0.88162188  0.27039158  0.67266140    -0.18700
C935        C  0.84772776  0.35624157  0.67371413    -0.20600
C936        C  0.82015586  0.37657450  0.67419011    -0.13100
C937        C  0.79843772  0.33206606  0.67387120     0.03600
C938        C  0.80475871  0.26656324  0.67314439    -0.25300
H939        H  0.87081643  0.10962240  0.67171119     0.08600
H940        H  0.82237893  0.14515155  0.67206817     0.12200
H941        H  0.89810072  0.30550864  0.67291243     0.12200
H942        H  0.86413290  0.39151334  0.67392811     0.11900
H943        H  0.81583468  0.42717846  0.67471392     0.12500
H944        H  0.78820940  0.23161371  0.67295590     0.14400
C945        C  0.71230532  0.34829453  0.71397949    -0.05600
C946        C  0.70210605  0.29026274  0.71886835    -0.05500
C947        C  0.69922078  0.28098107  0.73232417    -0.23700
C948        C  0.70649458  0.32962748  0.74106233     0.18500
C949        C  0.71705046  0.38782136  0.73623162     0.15700
C950        C  0.71994571  0.39665188  0.72277421    -0.18700
C951        C  0.72442193  0.43647007  0.74492601    -0.20600
C952        C  0.72145306  0.42749111  0.75835479    -0.13100
C953        C  0.71102028  0.36979086  0.76328588     0.03600
C954        C  0.70346848  0.32106394  0.75454464    -0.25300
H955        H  0.69604946  0.25239773  0.71229749     0.08600
H956        H  0.69114934  0.23597817  0.73588923     0.12200
H957        H  0.72793671  0.44168050  0.71916702     0.12200
H958        H  0.73256409  0.48137387  0.74134210     0.11900
H959        H  0.72752021  0.46554918  0.76487764     0.12500
H960        H  0.69551302  0.27611620  0.75820953     0.14400
C961        C  0.47178653  0.43594730  0.59076781    -0.05600
C962        C  0.47408282  0.39104250  0.60090987    -0.05500
C963        C  0.47187328  0.41016185  0.61396038    -0.23700
C964        C  0.46775892  0.47467634  0.61709006     0.18500
C965        C  0.46614828  0.52044456  0.60698795     0.15700
C966        C  0.46791488  0.50074288  0.59392663    -0.18700
C967        C  0.46284859  0.58518917  0.61012213    -0.20600
C968        C  0.46099724  0.60446975  0.62316954    -0.13100
C969        C  0.46187914  0.55923649  0.63328282     0.03600
C970        C  0.46530833  0.49426605  0.63013981    -0.25300
H971        H  0.47713923  0.34102465  0.59874220     0.08600
H972        H  0.47336124  0.37449212  0.62160543     0.12200
H973        H  0.46651038  0.53609351  0.58620847     0.12200
H974        H  0.46175533  0.62094258  0.60247935     0.11900
H975        H  0.45847946  0.65463185  0.62534989     0.12500
H976        H  0.46648474  0.45894705  0.63787400     0.14400
C977        C  0.54048895  0.54704682  0.67511419    -0.05600
C978        C  0.56071556  0.59465926  0.67688639    -0.05500
C979        C  0.58874578  0.57911041  0.67757049    -0.23700
C980        C  0.59717295  0.51564384  0.67639313     0.18500
C981        C  0.57706201  0.46721629  0.67467650     0.15700
C982        C  0.54877622  0.48313711  0.67415311    -0.18700
C983        C  0.58565206  0.40382928  0.67334778    -0.20600
C984        C  0.61384334  0.38866829  0.67360631    -0.13100
C985        C  0.63398066  0.43656004  0.67526902     0.03600
C986        C  0.62542371  0.50002241  0.67675420    -0.25300
H987        H  0.55487483  0.64434479  0.67775219     0.08600
H988        H  0.60383431  0.61681713  0.67890164     0.12200
H989        H  0.53336618  0.44619161  0.67272200     0.12200
H990        H  0.57060660  0.36605086  0.67200811     0.11900
H991        H  0.61986575  0.33925072  0.67246235     0.12500
H992        H  0.64071814  0.53739010  0.67799950     0.14400
C993        C  0.46640855  0.68582616  0.84011715    -0.05600
C994        C  0.46803795  0.64110974  0.85029607    -0.05500
C995        C  0.46768303  0.66118224  0.86330813    -0.23700
C996        C  0.46525316  0.72623933  0.86634301     0.18500
C997        C  0.46272171  0.77153616  0.85620547     0.15700
C998        C  0.46350020  0.75108179  0.84316578    -0.18700
C999        C  0.45971442  0.83647319  0.85930284    -0.20600
C1000       C  0.45981844  0.85650457  0.87235314    -0.13100
C1001       C  0.46318448  0.81197504  0.88248967     0.03600
C1002       C  0.46557754  0.74672423  0.87935406    -0.25300
H1003       H  0.47020822  0.59078685  0.84818676     0.08600
H1004       H  0.46949214  0.62584671  0.87100312     0.12200
H1005       H  0.46179504  0.78600976  0.83537942     0.12200
H1006       H  0.45755965  0.87181228  0.85162925     0.11900
H1007       H  0.45789979  0.90683589  0.87449943     0.12500
H1008       H  0.46783791  0.71156682  0.88706508     0.14400
C1009       C  0.54754808  0.56325099  0.80327999    -0.05600
C1010       C  0.57142514  0.60145838  0.80283248    -0.05500
C1011       C  0.59779906  0.57354502  0.80323850    -0.23700
C1012       C  0.60068257  0.50697289  0.80398982     0.18500
C1013       C  0.57680087  0.46817979  0.80440000     0.15700
C1014       C  0.55049862  0.49649278  0.80412058    -0.18700
C1015       C  0.57958755  0.40161670  0.80495187    -0.20600
C1016       C  0.60588476  0.37355004  0.80498457    -0.13100
C1017       C  0.62982560  0.41158451  0.80461308     0.03600
C1018       C  0.62701328  0.47847333  0.80419633    -0.25300
H1019       H  0.56971873  0.65285633  0.80218589     0.15000
H1020       H  0.61593502  0.60398010  0.80288491     0.12200
H1021       H  0.53229640  0.46620205  0.80439868     0.12200
H1022       H  0.56142505  0.37124021  0.80525115     0.11900
H1023       H  0.60748519  0.32206279  0.80530958     0.12500
H1024       H  0.64530269  0.50844819  0.80379722     0.14400
C1025       C  0.46522262  0.60408403  0.76147297    -0.05600
C1026       C  0.45702525  0.54556976  0.75608298    -0.05500
C1027       C  0.45434631  0.53880734  0.74254440    -0.23700
C1028       C  0.45969320  0.59055192  0.73417115     0.18500
C1029       C  0.46797434  0.64953815  0.73946920     0.15700
C1030       C  0.47074074  0.65584917  0.75303406    -0.18700
C1031       C  0.47330747  0.70132102  0.73111452    -0.20600
C1032       C  0.47066566  0.69461968  0.71758416    -0.13100
C1033       C  0.46253513  0.63611496  0.71217300     0.03600
C1034       C  0.45696915  0.58427485  0.72059371    -0.25300
H1035       H  0.45257451  0.50510879  0.76232993     0.08600
H1036       H  0.44798360  0.49317494  0.73862512     0.12200
H1037       H  0.47694361  0.70151003  0.75700644     0.12200
H1038       H  0.47964897  0.74695183  0.73504292     0.11900
H1039       H  0.47511773  0.73514988  0.71135610     0.12500
H1040       H  0.45077950  0.53865363  0.71659860     0.14400
C1041       C  0.22337279  0.96675466  0.63699996    -0.05600
C1042       C  0.22083566  0.91897440  0.62750073    -0.05500
C1043       C  0.22052220  0.93482789  0.61420369    -0.23700
C1044       C  0.22234186  0.99882728  0.61019750     0.18500
C1045       C  0.22405081  0.04733812  0.61968858     0.15700
C1046       C  0.22481395  0.03098337  0.63297745    -0.18700
C1047       C  0.22506631  0.11145198  0.61573305    -0.20600
C1048       C  0.22484935  0.12742670  0.60246597    -0.13100
C1049       C  0.22413814  0.07956570  0.59293476     0.03600
C1050       C  0.22267065  0.01521580  0.59688292    -0.25300
H1051       H  0.21956596  0.86928901  0.63034614     0.08600
H1052       H  0.21897248  0.89703432  0.60705454     0.12200
H1053       H  0.22634777  0.06847292  0.64020393     0.12200
H1054       H  0.22618407  0.14924260  0.62290150     0.11900
H1055       H  0.22596504  0.17717363  0.59964641     0.12500
H1056       H  0.22171901  0.97793196  0.58958890     0.14400
C1057       C  0.14609408  0.99849906  0.68006464    -0.05600
C1058       C  0.12588188  0.95502651  0.68439632    -0.05500
C1059       C  0.09804709  0.97215867  0.68479687    -0.23700
C1060       C  0.08984325  0.03291961  0.68072326     0.18500
C1061       C  0.11003260  0.07789718  0.67671441     0.15700
C1062       C  0.13820173  0.06061641  0.67654980    -0.18700
C1063       C  0.10154088  0.13859566  0.67259309    -0.20600
C1064       C  0.07333991  0.15392821  0.67216462    -0.13100
C1065       C  0.05318096  0.10879970  0.67584692     0.03600
C1066       C  0.06167149  0.04868268  0.68030534    -0.25300
H1067       H  0.13159656  0.90708835  0.68731881     0.08600
H1068       H  0.08287791  0.93733783  0.68798916     0.12200
H1069       H  0.15370112  0.09425627  0.67317166     0.12200
H1070       H  0.11663841  0.17379352  0.66950923     0.11900
H1071       H  0.06730464  0.20085129  0.66874920     0.12500
H1072       H  0.04635062  0.01373855  0.68329062     0.14400
C1073       C  0.30194804  0.84349576  0.67430938    -0.05600
C1074       C  0.32653365  0.87900525  0.67350005    -0.05500
C1075       C  0.35214463  0.84812501  0.67255461    -0.23700
C1076       C  0.35356953  0.78125055  0.67249958     0.18500
C1077       C  0.32906159  0.74494237  0.67347304     0.15700
C1078       C  0.30343096  0.77626770  0.67433130    -0.18700
C1079       C  0.33064927  0.67798949  0.67359967    -0.20600
C1080       C  0.35640864  0.64724292  0.67280901    -0.13100
C1081       C  0.38089564  0.68303502  0.67175871     0.03600
C1082       C  0.37916905  0.75018407  0.67157102    -0.25300
H1083       H  0.32595107  0.93062280  0.67346817     0.08600
H1084       H  0.37084900  0.87655073  0.67186098     0.12200
H1085       H  0.28464206  0.74812398  0.67505462     0.12200
H1086       H  0.31199493  0.64945336  0.67438120     0.11900
H1087       H  0.35717780  0.59565187  0.67304204     0.12500
H1088       H  0.39785276  0.77872670  0.67089716     0.14400
C1089       C  0.21356994  0.69692392  0.88479115    -0.05600
C1090       C  0.21363604  0.65518868  0.87411240    -0.05500
C1091       C  0.21409449  0.67903616  0.86133820    -0.23700
C1092       C  0.21496398  0.74506088  0.85902155     0.18500
C1093       C  0.21514726  0.78761248  0.86965704     0.15700
C1094       C  0.21414069  0.76331903  0.88245300    -0.18700
C1095       C  0.21662799  0.85363681  0.86729642    -0.20600
C1096       C  0.21801221  0.87727413  0.85449055    -0.13100
C1097       C  0.21746007  0.83533546  0.84384698     0.03600
C1098       C  0.21586712  0.76915779  0.84623860    -0.25300
H1099       H  0.21311884  0.60408626  0.87563891     0.08600
H1100       H  0.21398400  0.64579185  0.85326322     0.12200
H1101       H  0.21432011  0.79618043  0.89059919     0.12200
H1102       H  0.21684646  0.88696159  0.87535565     0.11900
H1103       H  0.21909465  0.92828505  0.85290431     0.12500
H1104       H  0.21566233  0.73610254  0.83812291     0.14400
C1105       C  0.29816260  0.82262918  0.80131932    -0.05600
C1106       C  0.31970099  0.86726524  0.79971876    -0.05500
C1107       C  0.34710250  0.84736654  0.79855365    -0.23700
C1108       C  0.35351138  0.78246990  0.79908025     0.18500
C1109       C  0.33199154  0.73706071  0.80052585     0.15700
C1110       C  0.30436905  0.75739750  0.80151349    -0.18700
C1111       C  0.33854496  0.67219007  0.80120970    -0.20600
C1112       C  0.36615535  0.65261108  0.80071087    -0.13100
C1113       C  0.38768490  0.69755258  0.79943729     0.03600
C1114       C  0.38115748  0.76243778  0.79844820    -0.25300
H1115       H  0.31538266  0.91793649  0.79939223     0.08600
H1116       H  0.36329178  0.88277672  0.79741880     0.12200
H1117       H  0.28788891  0.72277450  0.80277242     0.12200
H1118       H  0.32238434  0.63670023  0.80231830     0.11900
H1119       H  0.37064007  0.60213089  0.80146699     0.12500
H1120       H  0.39757521  0.79746129  0.79751398     0.14400
C1121       C  0.14363545  0.98169388  0.80777627    -0.05600
C1122       C  0.14315028  0.04671858  0.81120242    -0.05500
C1123       C  0.11847922  0.08127635  0.81098960    -0.23700
C1124       C  0.09372316  0.05154671  0.80738805     0.18500
C1125       C  0.09380181  0.98586862  0.80420619     0.15700
C1126       C  0.11875147  0.95131908  0.80440956    -0.18700
C1127       C  0.06893508  0.95600999  0.80076868    -0.20600
C1128       C  0.04427981  0.99079162  0.80049092    -0.13100
C1129       C  0.04404772  0.05623504  0.80350601     0.03600
C1130       C  0.06891011  0.08645807  0.80690684    -0.25300
H1131       H  0.16199972  0.07147864  0.81389186     0.08600
H1132       H  0.11882152  0.13137924  0.81353977     0.12200
H1133       H  0.11883933  0.90131575  0.80176077     0.12200
H1134       H  0.06853301  0.90581024  0.79830370     0.11900
H1135       H  0.02533249  0.96643955  0.79778957     0.12500
H1136       H  0.06887758  0.13672503  0.80934876     0.14400
C1137       C  0.22349892  0.93248584  0.76581300    -0.05600
C1138       C  0.23542976  0.98776692  0.76046520    -0.05500
C1139       C  0.23814572  0.99450516  0.74689267    -0.23700
C1140       C  0.22910795  0.94590097  0.73847207     0.18500
C1141       C  0.21702688  0.89035632  0.74377808     0.15700
C1142       C  0.21421445  0.88420522  0.75731797    -0.18700
C1143       C  0.20804053  0.84148667  0.73547725    -0.20600
C1144       C  0.21087321  0.84756470  0.72197077    -0.13100
C1145       C  0.22273486  0.90261368  0.71649882     0.03600
C1146       C  0.23188805  0.95171574  0.72485880    -0.25300
H1147       H  0.24285276  0.02545925  0.76676095     0.08600
H1148       H  0.24747482  0.03749781  0.74298821     0.12200
H1149       H  0.20502111  0.84102893  0.76122479     0.12200
H1150       H  0.19874014  0.79855752  0.73943331     0.11900
H1151       H  0.20353647  0.80928373  0.71580037     0.12500
H1152       H  0.24099663  0.99463495  0.72079654     0.14400
C1153       C  0.22526949  0.18417898  0.38507667    -0.05600
C1154       C  0.22748457  0.13606071  0.37563710    -0.05500
C1155       C  0.22796203  0.15156025  0.36234125    -0.23700
C1156       C  0.22666532  0.21551371  0.35828166     0.18500
C1157       C  0.22506505  0.26437868  0.36769705     0.15700
C1158       C  0.22410765  0.24837985  0.38099641    -0.18700
C1159       C  0.22458871  0.32843814  0.36365014    -0.20600
C1160       C  0.22559909  0.34397779  0.35036201    -0.13100
C1161       C  0.22652049  0.29569614  0.34092883     0.03600
C1162       C  0.22704328  0.23147023  0.34497298    -0.25300
H1163       H  0.22853042  0.08640620  0.37852980     0.08600
H1164       H  0.22939960  0.11354699  0.35523466     0.12200
H1165       H  0.22281135  0.28610697  0.38818077     0.12200
H1166       H  0.22350590  0.36649379  0.37076079     0.11900
H1167       H  0.22516940  0.39364895  0.34744314     0.12500
H1168       H  0.22814171  0.19387512  0.33774855     0.14400
C1169       C  0.23499269  0.40472520  0.13343725    -0.05600
C1170       C  0.23482899  0.35887114  0.12348294    -0.05500
C1171       C  0.23476048  0.37764429  0.11034461    -0.23700
C1172       C  0.23437635  0.44261067  0.10694570     0.18500
C1173       C  0.23388984  0.48909300  0.11687734     0.15700
C1174       C  0.23447138  0.46989550  0.13001918    -0.18700
C1175       C  0.23272219  0.55400854  0.11349770    -0.20600
C1176       C  0.23204706  0.57279069  0.10037460    -0.13100
C1177       C  0.23306398  0.52707915  0.09040970     0.03600
C1178       C  0.23429872  0.46191115  0.09379739    -0.25300
H1179       H  0.23522870  0.30852698  0.12585910     0.08600
H1180       H  0.23497512  0.34135267  0.10284130     0.12200
H1181       H  0.23424499  0.50583046  0.13760317     0.12200
H1182       H  0.23220580  0.59025491  0.12100729     0.11900
H1183       H  0.23106812  0.62311121  0.09801151     0.12500
H1184       H  0.23471537  0.42608846  0.08619288     0.14400
C1185       C  0.23593421  0.32324677  0.21231365    -0.05600
C1186       C  0.22612150  0.26608400  0.21780137    -0.05500
C1187       C  0.22392720  0.25929571  0.23136995    -0.23700
C1188       C  0.23139313  0.30968063  0.23966337     0.18500
C1189       C  0.24169722  0.36688973  0.23424501     0.15700
C1190       C  0.24399435  0.37316136  0.22066996    -0.18700
C1191       C  0.24924757  0.41730743  0.24247804    -0.20600
C1192       C  0.24646785  0.41133890  0.25600005    -0.13100
C1193       C  0.23598480  0.35496608  0.26153380     0.03600
C1194       C  0.22855869  0.30410882  0.25326314    -0.25300
H1195       H  0.21981406  0.22693606  0.21160875     0.08600
H1196       H  0.21608471  0.21494902  0.23536795     0.12200
H1197       H  0.25163966  0.41761662  0.21662479     0.12200
H1198       H  0.25721185  0.46149053  0.23845467     0.11900
H1199       H  0.25239251  0.45105423  0.26212580     0.12500
H1200       H  0.22065065  0.26007910  0.25738968     0.14400
C1201       C  0.49234228  0.28676209  0.38377668    -0.05600
C1202       C  0.48987798  0.33411854  0.37411347    -0.05500
C1203       C  0.49035278  0.31796745  0.36087014    -0.23700
C1204       C  0.49277840  0.25399303  0.35704854     0.18500
C1205       C  0.49518530  0.20591116  0.36667335     0.15700
C1206       C  0.49533775  0.22265816  0.37994386    -0.18700
C1207       C  0.49684748  0.14178076  0.36286460    -0.20600
C1208       C  0.49569289  0.12532919  0.34964639    -0.13100
C1209       C  0.49345847  0.17274594  0.33998987     0.03600
C1210       C  0.49233234  0.23718536  0.34378137    -0.25300
H1211       H  0.48764393  0.38375476  0.37679993     0.08600
H1212       H  0.48842904  0.35544480  0.35361897     0.12200
H1213       H  0.49703598  0.18553530  0.38729131     0.12200
H1214       H  0.49866303  0.10427903  0.37011667     0.11900
H1215       H  0.49675610  0.07548450  0.34696096     0.12500
H1216       H  0.49038933  0.27418480  0.33641974     0.14400
C1217       C  0.40914024  0.20021405  0.29968616    -0.05600
C1218       C  0.40520405  0.26621549  0.29821254    -0.05500
C1219       C  0.37859006  0.29209612  0.29790285    -0.23700
C1220       C  0.35534313  0.25247185  0.29901604     0.18500
C1221       C  0.35879262  0.18592039  0.30032528     0.15700
C1222       C  0.38573656  0.16011456  0.30069162    -0.18700
C1223       C  0.33521283  0.14671913  0.30130874    -0.20600
C1224       C  0.30852009  0.17350544  0.30120494    -0.13100
C1225       C  0.30508566  0.23984271  0.30019637     0.03600
C1226       C  0.32870327  0.27875158  0.29895783    -0.25300
H1227       H  0.42276248  0.29815358  0.29740134     0.08600
H1228       H  0.37619886  0.34324741  0.29685957     0.12200
H1229       H  0.38844971  0.10905596  0.30175438     0.12200
H1230       H  0.33742274  0.09550640  0.30226518     0.11900
H1231       H  0.29065559  0.14257769  0.30215429     0.12500
H1232       H  0.32643275  0.33000126  0.29800838     0.14400
C1233       C  0.48055323  0.88507544  0.09003574    -0.05600
C1234       C  0.48268463  0.83833593  0.09983481    -0.05500
C1235       C  0.48269598  0.85586288  0.11307111    -0.23700
C1236       C  0.48098343  0.92046364  0.11669620     0.18500
C1237       C  0.47994890  0.96771890  0.10686911     0.15700
C1238       C  0.47959476  0.94976799  0.09369830    -0.18700
C1239       C  0.47902808  0.03233993  0.11034239    -0.20600
C1240       C  0.47868977  0.05024436  0.12346577    -0.13100
C1241       C  0.47883571  0.00394239  0.13338790     0.03600
C1242       C  0.48014592  0.93884901  0.12991969    -0.25300
H1243       H  0.48363253  0.78832983  0.09727527     0.08600
H1244       H  0.48379487  0.81890550  0.12046762     0.12200
H1245       H  0.47850946  0.98654363  0.08624921     0.12200
H1246       H  0.47843464  0.06912447  0.10289345     0.11900
H1247       H  0.47782337  0.10046888  0.12585847     0.12500
H1248       H  0.48072924  0.90264055  0.13749029     0.14400
C1249       C  0.31598072  0.28219564  0.17036839    -0.05600
C1250       C  0.33965560  0.32126272  0.17023313    -0.05500
C1251       C  0.36626573  0.29440446  0.17006998    -0.23700
C1252       C  0.36973409  0.22791340  0.17016307     0.18500
C1253       C  0.34611640  0.18815270  0.17038537     0.15700
C1254       C  0.31947785  0.21544227  0.17040101    -0.18700
C1255       C  0.34953232  0.12170854  0.17069578    -0.20600
C1256       C  0.37610162  0.09480351  0.17081910    -0.13100
C1257       C  0.39981599  0.13372182  0.17051092     0.03600
C1258       C  0.39638700  0.20051048  0.17014169    -0.25300
H1259       H  0.33761451  0.37268412  0.17023187     0.08600
H1260       H  0.38414365  0.32567428  0.16994239     0.12200
H1261       H  0.30146942  0.18454286  0.17062125     0.12200
H1262       H  0.33163805  0.09049322  0.17091056     0.11900
H1263       H  0.37807561  0.04338414  0.17112181     0.12500
H1264       H  0.41443979  0.23127885  0.17001240     0.14400
C1265       C  0.48216851  0.09948066  0.21167306    -0.05600
C1266       C  0.49265608  0.15808993  0.21610712    -0.05500
C1267       C  0.49511166  0.17032381  0.22948487    -0.23700
C1268       C  0.48718759  0.12411067  0.23869433     0.18500
C1269       C  0.47636691  0.06530348  0.23437016     0.15700
C1270       C  0.47385295  0.05346862  0.22093149    -0.18700
C1271       C  0.46844157  0.01905116  0.24356144    -0.20600
C1272       C  0.47130948  0.03077995  0.25692748    -0.13100
C1273       C  0.48214715  0.08899179  0.26137873     0.03600
C1274       C  0.49000341  0.13558398  0.25214226    -0.25300
H1275       H  0.49919451  0.19438748  0.20922854     0.08600
H1276       H  0.50340239  0.21577012  0.23262435     0.12200
H1277       H  0.46570859  0.00801213  0.21770341     0.12200
H1278       H  0.46007629  0.97369163  0.24041303     0.11900
H1279       H  0.46500276  0.99417632  0.26378641     0.12500
H1280       H  0.49831248  0.18084551  0.25539190     0.14400
C1281       C  0.98056763  0.82135436  0.38652038    -0.05600
C1282       C  0.98491678  0.86560893  0.37643010    -0.05500
C1283       C  0.98773752  0.84500739  0.36352803    -0.23700
C1284       C  0.98585540  0.77989631  0.36050258     0.18500
C1285       C  0.98070503  0.73511763  0.37052286     0.15700
C1286       C  0.97829969  0.75607685  0.38346318    -0.18700
C1287       C  0.97813244  0.67017009  0.36742409    -0.20600
C1288       C  0.98077281  0.64970830  0.35448670    -0.13100
C1289       C  0.98651021  0.69373088  0.34450383     0.03600
C1290       C  0.98899471  0.75886345  0.34761720    -0.25300
H1291       H  0.98680140  0.91596690  0.37855781     0.08600
H1292       H  0.99152746  0.87995826  0.35592370     0.12200
H1293       H  0.97465264  0.72149565  0.39116239     0.12200
H1294       H  0.97403094  0.63525430  0.37499841     0.11900
H1295       H  0.97865576  0.59945542  0.35230704     0.12500
H1296       H  0.99297268  0.79349908  0.33996436     0.14400
C1297       C  0.15776839  0.43845129  0.30180104    -0.05600
C1298       C  0.15959765  0.50161567  0.29720240    -0.05500
C1299       C  0.13686088  0.54264678  0.29785084    -0.23700
C1300       C  0.11186015  0.52164790  0.30328024     0.18500
C1301       C  0.10972573  0.45814957  0.30793372     0.15700
C1302       C  0.13260867  0.41663606  0.30703389    -0.18700
C1303       C  0.08476875  0.43744136  0.31346555    -0.20600
C1304       C  0.06201093  0.47854074  0.31408496    -0.13100
C1305       C  0.06368372  0.54135120  0.30921949     0.03600
C1306       C  0.08890690  0.56290532  0.30400086    -0.25300
H1307       H  0.17880226  0.51945200  0.29310087     0.08600
H1308       H  0.13892179  0.59096244  0.29419970     0.12200
H1309       H  0.13111683  0.36827122  0.31073445     0.12200
H1310       H  0.08272305  0.38922296  0.31717157     0.11900
H1311       H  0.04283790  0.46060196  0.31819223     0.12500
H1312       H  0.09043422  0.61095618  0.30013546     0.14400
C1313       C  0.97303687  0.39138383  0.09438358    -0.05600
C1314       C  0.97387239  0.34060763  0.10333665    -0.05500
C1315       C  0.97353682  0.35262624  0.11680541    -0.23700
C1316       C  0.97278009  0.41561088  0.12148397     0.18500
C1317       C  0.97273686  0.46681193  0.11251020     0.15700
C1318       C  0.97269340  0.45436377  0.09909805    -0.18700
C1319       C  0.97265588  0.52981055  0.11706736    -0.20600
C1320       C  0.97251628  0.54222703  0.13044744    -0.13100
C1321       C  0.97200301  0.49192078  0.13949995     0.03600
C1322       C  0.97211101  0.42849903  0.13494124    -0.25300
H1323       H  0.97413231  0.29179016  0.09992813     0.08600
H1324       H  0.97374931  0.31274055  0.12355324     0.12200
H1325       H  0.97244053  0.49406590  0.09228955     0.12200
H1326       H  0.97272670  0.56953123  0.11027504     0.11900
H1327       H  0.97243712  0.59127807  0.13372104     0.12500
H1328       H  0.97205018  0.38925103  0.14185451     0.14400
C1329       C  0.15655694  0.42470715  0.17646899    -0.05600
C1330       C  0.15131295  0.49016264  0.17799050    -0.05500
C1331       C  0.12418167  0.51268307  0.17931127    -0.23700
C1332       C  0.10175544  0.47013481  0.17918888     0.18500
C1333       C  0.10668260  0.40410091  0.17789199     0.15700
C1334       C  0.13403026  0.38180455  0.17651164    -0.18700
C1335       C  0.08413703  0.36167779  0.17788353    -0.20600
C1336       C  0.05692174  0.38465441  0.17887379    -0.13100
C1337       C  0.05180232  0.45041374  0.17984564     0.03600
C1338       C  0.07446693  0.49275037  0.18016440    -0.25300
H1339       H  0.16820138  0.52417168  0.17804282     0.08600
H1340       H  0.12073005  0.56348011  0.18034171     0.12200
H1341       H  0.13772676  0.33109811  0.17545550     0.12200
H1342       H  0.08753042  0.31082196  0.17695023     0.11900
H1343       H  0.03987507  0.35109642  0.17859074     0.12500
H1344       H  0.07091034  0.54362071  0.18100389     0.14400
C1345       C  0.97512880  0.54952858  0.21902655    -0.05600
C1346       C  0.96270980  0.50315969  0.22708682    -0.05500
C1347       C  0.96404534  0.50797612  0.24065586    -0.23700
C1348       C  0.97790710  0.55916633  0.24646178     0.18500
C1349       C  0.99046744  0.60612124  0.23847233     0.15700
C1350       C  0.98892242  0.60117905  0.22482181    -0.18700
C1351       C  0.00439628  0.65721508  0.24427531    -0.20600
C1352       C  0.00563780  0.66212577  0.25784190    -0.13100
C1353       C  0.99296050  0.61607995  0.26590791     0.03600
C1354       C  0.97925478  0.56435009  0.26011418    -0.25300
H1355       H  0.95192001  0.46282631  0.22290360     0.08600
H1356       H  0.95427222  0.47156278  0.24660339     0.12200
H1357       H  0.99867201  0.63712856  0.21874079     0.12200
H1358       H  0.01419764  0.69359799  0.23832933     0.11900
H1359       H  0.01633198  0.70262859  0.26201171     0.12500
H1360       H  0.96933605  0.52864836  0.26619454     0.14400
C1361       C  0.73002621  0.69031751  0.38666462    -0.05600
C1362       C  0.73152279  0.64099601  0.37746892    -0.05500
C1363       C  0.73304817  0.65510795  0.36411198    -0.23700
C1364       C  0.73340473  0.71875796  0.35977996     0.18500
C1365       C  0.73296149  0.76861348  0.36899923     0.15700
C1366       C  0.73117706  0.75408799  0.38233168    -0.18700
C1367       C  0.73388274  0.83223425  0.36472969    -0.20600
C1368       C  0.73457682  0.84648281  0.35139433    -0.13100
C1369       C  0.73405604  0.79739862  0.34211131     0.03600
C1370       C  0.73380801  0.73347461  0.34640094    -0.25300
H1371       H  0.73075381  0.59163516  0.38058149     0.08600
H1372       H  0.73358555  0.61628127  0.35716510     0.12200
H1373       H  0.73047329  0.79264746  0.38935042     0.12200
H1374       H  0.73374349  0.87098770  0.37170030     0.11900
H1375       H  0.73486044  0.89596076  0.34833849     0.12500
H1376       H  0.73379354  0.69512726  0.33932991     0.14400
C1377       C  0.81214839  0.76844634  0.29940091    -0.05600
C1378       C  0.81692475  0.70343121  0.29704241    -0.05500
C1379       C  0.84387977  0.67964922  0.29639409    -0.23700
C1380       C  0.86656952  0.72041507  0.29814260     0.18500
C1381       C  0.86223159  0.78618517  0.30018506     0.15700
C1382       C  0.83499422  0.80990452  0.30075546    -0.18700
C1383       C  0.88521774  0.82655971  0.30191780    -0.20600
C1384       C  0.91218356  0.80140059  0.30213732    -0.13100
C1385       C  0.91643998  0.73562857  0.30061460     0.03600
C1386       C  0.89349914  0.69586210  0.29826537    -0.25300
H1387       H  0.79978559  0.67060111  0.29586328     0.08600
H1388       H  0.84696573  0.62910682  0.29476316     0.12200
H1389       H  0.83162800  0.86027367  0.30248701     0.12200
H1390       H  0.88229599  0.87722945  0.30342311     0.11900
H1391       H  0.92954611  0.83290604  0.30393357     0.12500
H1392       H  0.89649362  0.64507819  0.29687958     0.14400
C1393       C  0.65261463  0.90795882  0.30445343    -0.05600
C1394       C  0.62932147  0.86809142  0.30558899    -0.05500
C1395       C  0.60252130  0.89376241  0.30543246    -0.23700
C1396       C  0.59853520  0.95971348  0.30399087     0.18500
C1397       C  0.62180634  0.00019435  0.30282285     0.15700
C1398       C  0.64862336  0.97418731  0.30316132    -0.18700
C1399       C  0.61787992  0.06600514  0.30120906    -0.20600
C1400       C  0.59112317  0.09159573  0.30073871    -0.13100
C1401       C  0.56776567  0.05195193  0.30194751     0.03600
C1402       C  0.57170022  0.98582652  0.30360442    -0.25300
H1403       H  0.63181787  0.81699468  0.30660037     0.08600
H1404       H  0.58491273  0.86198026  0.30633356     0.12200
H1405       H  0.66637467  0.00552796  0.30216929     0.12200
H1406       H  0.63550956  0.09770207  0.30026501     0.11900
H1407       H  0.58873771  0.14258431  0.29946905     0.12500
H1408       H  0.55391363  0.95454336  0.30451045     0.14400
C1409       C  0.74366128  0.89598777  0.13434000    -0.05600
C1410       C  0.74737828  0.84706460  0.12520528    -0.05500
C1411       C  0.74698849  0.86066296  0.11184403    -0.23700
C1412       C  0.74225143  0.92318747  0.10744211     0.18500
C1413       C  0.73798119  0.97255759  0.11656181     0.15700
C1414       C  0.73909994  0.95876874  0.12995785    -0.18700
C1415       C  0.73251906  0.03472836  0.11211798    -0.20600
C1416       C  0.73170894  0.04810278  0.09873061    -0.13100
C1417       C  0.73663295  0.99964685  0.08959981     0.03600
C1418       C  0.74169212  0.93709833  0.09406895    -0.25300
H1419       H  0.75087042  0.79845763  0.12841682     0.08600
H1420       H  0.75021015  0.82225693  0.10495708     0.12200
H1421       H  0.73579348  0.99659410  0.13698103     0.12200
H1422       H  0.72897476  0.07302275  0.11899422     0.11900
H1423       H  0.72771250  0.09651043  0.09553215     0.12500
H1424       H  0.74521529  0.89898255  0.08713874     0.14400
C1425       C  0.66229245  0.94442403  0.17362246    -0.05600
C1426       C  0.65846697  0.01081399  0.17422329    -0.05500
C1427       C  0.63172440  0.03695483  0.17437116    -0.23700
C1428       C  0.60834335  0.99710815  0.17402244     0.18500
C1429       C  0.61200627  0.93034200  0.17347664     0.15700
C1430       C  0.63883662  0.90457715  0.17319277    -0.18700
C1431       C  0.58876767  0.89024404  0.17328907    -0.20600
C1432       C  0.56206197  0.91595928  0.17362651    -0.13100
C1433       C  0.55804738  0.98227340  0.17401890     0.03600
C1434       C  0.58138162  0.02270658  0.17421460    -0.25300
H1435       H  0.67614846  0.04257852  0.17455263     0.08600
H1436       H  0.62933411  0.08827788  0.17480711     0.12200
H1437       H  0.64139248  0.85326378  0.17278109     0.12200
H1438       H  0.59123920  0.83892943  0.17287880     0.11900
H1439       H  0.54449762  0.88382810  0.17337219     0.12500
H1440       H  0.57858813  0.07396679  0.17455020     0.14400
C1441       C  0.81658973  0.77294864  0.17515770    -0.05600
C1442       C  0.84141460  0.80797157  0.17528541    -0.05500
C1443       C  0.86703211  0.77679814  0.17602082    -0.23700
C1444       C  0.86830442  0.71000361  0.17672019     0.18500
C1445       C  0.84353247  0.67421602  0.17678010     0.15700
C1446       C  0.81787725  0.70584234  0.17595947    -0.18700
C1447       C  0.84487353  0.60740636  0.17761888    -0.20600
C1448       C  0.87056428  0.57625452  0.17822469    -0.13100
C1449       C  0.89537092  0.61133614  0.17796409     0.03600
C1450       C  0.89395792  0.67845497  0.17729848    -0.25300
H1451       H  0.84105276  0.85953478  0.17472591     0.08600
H1452       H  0.88586714  0.80495875  0.17600956     0.12200
H1453       H  0.79891750  0.67809777  0.17599879     0.12200
H1454       H  0.82605154  0.57921259  0.17773878     0.11900
H1455       H  0.87101201  0.52469840  0.17878184     0.12500
H1456       H  0.91285656  0.70641806  0.17718683     0.14400
C1457       C  0.73290361  0.86530223  0.26282600    -0.05600
C1458       C  0.74245840  0.92293929  0.25744735    -0.05500
C1459       C  0.74473371  0.93040187  0.24393275    -0.23700
C1460       C  0.73754615  0.88029517  0.23555777     0.18500
C1461       C  0.72763855  0.82234989  0.24083363     0.15700
C1462       C  0.72531536  0.81528170  0.25440744    -0.18700
C1463       C  0.72043256  0.77227438  0.23244576    -0.20600
C1464       C  0.72306192  0.77951525  0.21893390    -0.13100
C1465       C  0.73301713  0.83686624  0.21358156     0.03600
C1466       C  0.74020961  0.88713332  0.22200002    -0.25300
H1467       H  0.74845236  0.96214624  0.26369322     0.08600
H1468       H  0.75231863  0.97520409  0.24003681     0.12200
H1469       H  0.71795131  0.77045814  0.25839801     0.12200
H1470       H  0.71280625  0.72749227  0.23633317     0.11900
H1471       H  0.71737367  0.74010563  0.21267769     0.12500
H1472       H  0.74782234  0.93176566  0.21802270     0.14400
loop_ 
_geom_bond_atom_site_label_1 
_geom_bond_atom_site_label_2 
_geom_bond_distance 
_geom_bond_site_symmetry_2 
_ccdc_geom_bond_type 
O1           Cu9   2.019       .  S
O1           C11   1.280       .  A
O2           Cu9   2.016       .  S
O2           C12   1.280       .  A
O3           Cu9   1.998       .  S
O3           C13   1.277       .  A
O4           Cu9   1.996       .  S
O4           C14   1.276       .  A
O5          Cu10   2.031       .  S
O5           C14   1.282       .  A
O6          Cu10   2.023       .  S
O6           C13   1.280       .  A
O7          Cu10   1.995       .  S
O7           C12   1.276       .  A
O8          Cu10   1.995       .  S
O8           C11   1.276       .  A
Cu9         Cu10   2.371       .  S
C11        C1409   1.473       .  S
C12        C1465   1.480       .  S
C13        C1425   1.483       .  S
C14        C1441   1.485       .  S
O15         Cu23   1.999       .  S
O15          C25   1.277       .  A
O16         Cu23   1.999       .  S
O16          C26   1.276       .  A
O17         Cu23   2.018       .  S
O17          C27   1.280       .  A
O18         Cu23   2.025       .  S
O18          C28   1.281       .  A
O19         Cu24   1.995       .  S
O19          C28   1.276       .  A
O20         Cu24   1.994       .  S
O20          C27   1.276       .  A
O21         Cu24   2.012       .  S
O21          C26   1.280       .  A
O22         Cu24   2.021       .  S
O22          C25   1.280       .  A
Cu23        Cu24   2.371       .  S
C25        C1393   1.482       .  S
C26        C1377   1.479       .  S
C27        C1457   1.480       .  S
C28        C1369   1.480       .  S
O29         Cu37   2.041       .  S
O29          C39   1.283       .  A
O30         Cu37   2.036   1_455  S
O30          C40   1.282       .  A
O31         Cu37   1.990       .  S
O31          C41   1.275       .  A
O32         Cu37   1.992       .  S
O32          C42   1.275       .  A
O33         Cu38   2.027       .  S
O33          C42   1.282       .  A
O34         Cu38   2.024       .  S
O34          C41   1.281       .  A
O35         Cu38   1.985   1_455  S
O35          C40   1.275       .  A
O36         Cu38   1.986       .  S
O36          C39   1.275       .  A
Cu37        Cu38   2.370       .  S
C39        C1449   1.486       .  S
C40        C1337   1.483       .  S
C41        C1345   1.480       .  S
C42        C1321   1.479       .  S
O43         Cu51   1.974   1_455  S
O43          C53   1.273       .  A
O44         Cu51   1.966       .  S
O44          C54   1.273       .  A
O45         Cu51   2.033       .  S
O45          C55   1.282       .  A
O46         Cu51   2.034       .  S
O46          C56   1.282       .  A
O47         Cu52   1.983       .  S
O47          C56   1.274   1_455  A
O48         Cu52   1.979       .  S
O48          C55   1.274   1_455  A
O49         Cu52   2.041   1_655  S
O49          C54   1.282       .  A
O50         Cu52   2.045       .  S
O50          C53   1.284       .  A
Cu51        Cu52   2.370   1_655  S
C53        C1305   1.482       .  S
C54        C1385   1.478       .  S
C55        C1353   1.480       .  S
C56        C1289   1.479       .  S
O57         Cu65   2.031       .  S
O57          C67   1.282       .  A
O58         Cu65   2.025       .  S
O58          C68   1.281       .  A
O59         Cu65   2.004       .  S
O59          C69   1.277       .  A
O60         Cu65   2.007       .  S
O60          C70   1.277       .  A
O61         Cu66   2.028       .  S
O61          C70   1.281       .  A
O62         Cu66   2.016   1_565  S
O62          C69   1.280   1_565  A
O63         Cu66   2.005       .  S
O63          C68   1.277       .  A
O64         Cu66   2.006   1_565  S
O64          C67   1.276   1_565  A
Cu65        Cu66   2.369       .  S
C67        C1241   1.485       .  S
C68        C1265   1.486       .  S
C69        C1433   1.481   1_545  S
C70        C1257   1.487       .  S
O71         Cu79   2.007       .  S
O71          C81   1.277       .  A
O72         Cu79   2.004       .  S
O72          C82   1.277       .  A
O73         Cu79   2.028       .  S
O73          C83   1.281       .  A
O74         Cu79   2.024       .  S
O74          C84   1.281       .  A
O75         Cu80   2.003       .  S
O75          C84   1.277       .  A
O76         Cu80   2.002       .  S
O76          C83   1.276       .  A
O77         Cu80   2.018       .  S
O77          C82   1.280       .  A
O78         Cu80   2.010       .  S
O78          C81   1.280       .  A
Cu79        Cu80   2.370       .  S
C81        C1217   1.481       .  S
C82        C1401   1.483       .  S
C83        C1209   1.482       .  S
C84        C1273   1.485       .  S
O85         Cu93   2.041       .  S
O85          C95   1.283       .  A
O86         Cu93   2.034       .  S
O86          C96   1.282       .  A
O87         Cu93   2.001       .  S
O87          C97   1.276       .  A
O88         Cu93   2.001       .  S
O88          C98   1.277       .  A
O89         Cu94   2.031       .  S
O89          C98   1.282       .  A
O90         Cu94   2.024       .  S
O90          C97   1.281       .  A
O91         Cu94   1.984       .  S
O91          C96   1.275       .  A
O92         Cu94   1.988       .  S
O92          C95   1.275       .  A
Cu93        Cu94   2.369       .  S
C95        C1169   1.483       .  S
C96        C1185   1.483       .  S
C97        C1329   1.484       .  S
C98        C1249   1.487       .  S
O99        Cu107   1.972       .  S
O99         C109   1.272       .  A
O100       Cu107   1.972       .  S
O100        C110   1.274       .  A
O101       Cu107   2.025       .  S
O101        C111   1.281       .  A
O102       Cu107   2.033       .  S
O102        C112   1.282       .  A
O103       Cu108   1.988       .  S
O103        C112   1.275       .  A
O104       Cu108   1.994       .  S
O104        C111   1.275       .  A
O105       Cu108   2.041       .  S
O105        C110   1.282       .  A
O106       Cu108   2.050       .  S
O106        C109   1.284       .  A
Cu107      Cu108   2.371       .  S
C109       C1297   1.478       .  S
C110       C1225   1.480       .  S
C111       C1193   1.481       .  S
C112       C1161   1.477       .  S
O113       Cu121   1.975       .  S
O113        C123   1.273       .  A
O114       Cu121   1.969       .  S
O114        C124   1.273       .  A
O115       Cu121   2.030       .  S
O115        C125   1.282       .  A
O116       Cu121   2.035       .  S
O116        C126   1.283       .  A
O117       Cu122   1.962       .  S
O117        C126   1.271       .  A
O118       Cu122   1.958       .  S
O118        C125   1.271       .  A
O119       Cu122   2.050       .  S
O119        C124   1.284       .  A
O120       Cu122   2.052       .  S
O120        C123   1.285       .  A
Cu121      Cu122   2.370       .  S
C123       C1097   1.484       .  S
C124       C1137   1.485       .  S
C125       C1105   1.470       .  S
C126       C1121   1.477       .  S
O127       Cu135   2.037       .  S
O127        C137   1.283       .  A
O128       Cu135   2.031   1_545  S
O128        C138   1.281   1_545  A
O129       Cu135   1.993       .  S
O129        C139   1.275       .  A
O130       Cu135   1.991       .  S
O130        C140   1.275       .  A
O131       Cu136   2.035       .  S
O131        C140   1.282       .  A
O132       Cu136   2.026       .  S
O132        C139   1.282       .  A
O133       Cu136   1.965       .  S
O133        C138   1.273       .  A
O134       Cu136   1.972       .  S
O134        C137   1.272       .  A
Cu135      Cu136   2.371       .  S
C137       C1073   1.479       .  S
C138       C1057   1.470       .  S
C139       C1145   1.483       .  S
C140       C1041   1.483       .  S
O141       Cu149   1.968       .  S
O141        C151   1.272       .  A
O142       Cu149   1.974       .  S
O142        C152   1.273       .  A
O143       Cu149   2.042       .  S
O143        C153   1.284       .  A
O144       Cu149   2.040       .  S
O144        C154   1.283       .  A
O145       Cu150   1.982       .  S
O145        C154   1.274       .  A
O146       Cu150   1.983       .  S
O146        C153   1.273       .  A
O147       Cu150   2.035       .  S
O147        C152   1.282       .  A
O148       Cu150   2.021       .  S
O148        C151   1.282       .  A
Cu149      Cu150   2.370       .  S
C151       C1113   1.472       .  S
C152       C1009   1.480       .  S
C153        C993   1.481       .  S
C154       C1025   1.484       .  S
O155       Cu163   2.047       .  S
O155        C165   1.284       .  A
O156       Cu163   2.037       .  S
O156        C166   1.283       .  A
O157       Cu163   1.984       .  S
O157        C167   1.274       .  A
O158       Cu163   1.988       .  S
O158        C168   1.274       .  A
O159       Cu164   2.041       .  S
O159        C168   1.283       .  A
O160       Cu164   2.038       .  S
O160        C167   1.283       .  A
O161       Cu164   1.962       .  S
O161        C166   1.271       .  A
O162       Cu164   1.965       .  S
O162        C165   1.272       .  A
Cu163      Cu164   2.370       .  S
C165       C1081   1.482       .  S
C166        C977   1.474       .  S
C167       C1033   1.484       .  S
C168        C969   1.482       .  S
O169       Cu177   2.023       .  S
O169        C179   1.281       .  A
O170       Cu177   2.020       .  S
O170        C180   1.281       .  A
O171       Cu177   1.975       .  S
O171        C181   1.274       .  A
O172       Cu177   1.977       .  S
O172        C182   1.273       .  A
O173       Cu178   2.030       .  S
O173        C182   1.282       .  A
O174       Cu178   2.026       .  S
O174        C181   1.281       .  A
O175       Cu178   1.983       .  S
O175        C180   1.274       .  A
O176       Cu178   1.985       .  S
O176        C179   1.275       .  A
Cu177      Cu178   2.371       .  S
C179        C937   1.478       .  S
C180        C985   1.477       .  S
C181        C945   1.477       .  S
C182        C913   1.477       .  S
O183       Cu191   1.978       .  S
O183        C193   1.274       .  A
O184       Cu191   1.980       .  S
O184        C194   1.274       .  A
O185       Cu191   2.018       .  S
O185        C195   1.281       .  A
O186       Cu191   2.025       .  S
O186        C196   1.281       .  A
O187       Cu192   1.990       .  S
O187        C196   1.275       .  A
O188       Cu192   1.987       .  S
O188        C195   1.275       .  A
O189       Cu192   2.016       .  S
O189        C194   1.280       .  A
O190       Cu192   2.020       .  S
O190        C193   1.281       .  A
Cu191      Cu192   2.372       .  S
C193        C889   1.472       .  S
C194        C953   1.475       .  S
C195        C905   1.477       .  S
C196       C1017   1.480       .  S
O197       Cu205   2.023       .  S
O197        C207   1.281       .  A
O198       Cu205   2.015   1_455  S
O198        C208   1.281       .  A
O199       Cu205   1.972       .  S
O199        C209   1.273       .  A
O200       Cu205   1.974       .  S
O200        C210   1.273       .  A
O201       Cu206   2.041       .  S
O201        C210   1.282       .  A
O202       Cu206   2.037       .  S
O202        C209   1.283       .  A
O203       Cu206   1.984   1_455  S
O203        C208   1.274       .  A
O204       Cu206   1.984       .  S
O204        C207   1.275       .  A
Cu205      Cu206   2.371       .  S
C207        C929   1.478       .  S
C208       C1065   1.475       .  S
C209        C865   1.479       .  S
C210        C857   1.477       .  S
O211       Cu219   1.981       .  S
O211        C221   1.274       .  A
O212       Cu219   1.977       .  S
O212        C222   1.273       .  A
O213       Cu219   2.034   1_455  S
O213        C223   1.282       .  A
O214       Cu219   2.032       .  S
O214        C224   1.282       .  A
O215       Cu220   1.970       .  S
O215        C224   1.273       .  A
O216       Cu220   1.972       .  S
O216        C223   1.272   1_655  A
O217       Cu220   2.034       .  S
O217        C222   1.282       .  A
O218       Cu220   2.027       .  S
O218        C221   1.282       .  A
Cu219      Cu220   2.372       .  S
C221        C873   1.479       .  S
C222        C841   1.476       .  S
C223       C1129   1.474       .  S
C224        C897   1.477       .  S
O225       Cu233   2.030       .  S
O225        C235   1.282       .  A
O226       Cu233   2.033       .  S
O226        C236   1.282       .  A
O227       Cu233   1.965       .  S
O227        C237   1.272       .  A
O228       Cu233   1.969       .  S
O228        C238   1.272       .  A
O229       Cu234   2.040       .  S
O229        C238   1.283       .  A
O230       Cu234   2.043       .  S
O230        C237   1.283       .  A
O231       Cu234   1.996       .  S
O231        C236   1.276       .  A
O232       Cu234   1.990       .  S
O232        C235   1.275       .  A
Cu233      Cu234   2.370       .  S
C235        C785   1.482       .  S
C236        C801   1.485       .  S
C237        C921   1.475       .  S
C238        C825   1.479       .  S
O239       Cu247   1.969       .  S
O239        C249   1.272       .  A
O240       Cu247   1.974       .  S
O240        C250   1.273       .  A
O241       Cu247   2.040       .  S
O241        C251   1.283       .  A
O242       Cu247   2.031       .  S
O242        C252   1.282       .  A
O243       Cu248   1.979       .  S
O243        C252   1.273       .  A
O244       Cu248   1.978       .  S
O244        C251   1.273       .  A
O245       Cu248   2.045       .  S
O245        C250   1.283       .  A
O246       Cu248   2.043       .  S
O246        C249   1.283       .  A
Cu247      Cu248   2.371       .  S
C249        C753   1.476       .  S
C250        C777   1.483       .  S
C251       C1361   1.480       .  S
C252        C817   1.477       .  S
O253       Cu261   1.979       .  S
O253        C263   1.273       .  A
O254       Cu261   1.980   1_455  S
O254        C264   1.274       .  A
O255       Cu261   2.035       .  S
O255        C265   1.282       .  A
O256       Cu261   2.032       .  S
O256        C266   1.282       .  A
O257       Cu262   1.978       .  S
O257        C266   1.274       .  A
O258       Cu262   1.982       .  S
O258        C265   1.274       .  A
O259       Cu262   2.042   1_455  S
O259        C264   1.283       .  A
O260       Cu262   2.035       .  S
O260        C263   1.283       .  A
Cu261      Cu262   2.369       .  S
C263        C761   1.481       .  S
C264        C721   1.483       .  S
C265       C1281   1.479       .  S
C266        C737   1.480       .  S
O267       Cu275   2.025       .  S
O267        C277   1.282       .  A
O268       Cu275   2.022       .  S
O268        C278   1.281       .  A
O269       Cu275   1.985   1_455  S
O269        C279   1.275       .  A
O270       Cu275   1.992       .  S
O270        C280   1.275       .  A
O271       Cu276   2.036       .  S
O271        C280   1.283       .  A
O272       Cu276   2.029   1_545  S
O272        C279   1.282   1_645  A
O273       Cu276   1.988       .  S
O273        C278   1.275       .  A
O274       Cu276   1.992   1_545  S
O274        C277   1.275   1_545  A
Cu275      Cu276   2.370       .  S
C277        C849   1.481       .  S
C278        C745   1.479       .  S
C279        C705   1.481   1_565  S
C280        C809   1.486       .  S
O281       Cu289   2.006       .  S
O281        C291   1.277       .  A
O282       Cu289   2.002       .  S
O282        C292   1.277       .  A
O283       Cu289   2.029       .  S
O283        C293   1.282       .  A
O284       Cu289   2.032       .  S
O284        C294   1.282       .  A
O285       Cu290   1.988       .  S
O285        C294   1.275       .  A
O286       Cu290   1.992       .  S
O286        C293   1.275       .  A
O287       Cu290   2.011       .  S
O287        C292   1.280       .  A
O288       Cu290   2.018       .  S
O288        C291   1.280       .  A
Cu289      Cu290   2.370       .  S
C291        C729   1.484       .  S
C292        C673   1.479       .  S
C293        C689   1.483       .  S
C294       C1153   1.481       .  S
O295       Cu303   2.032       .  S
O295        C305   1.282       .  A
O296       Cu303   2.043       .  S
O296        C306   1.283       .  A
O297       Cu303   1.996       .  S
O297        C307   1.275       .  A
O298       Cu303   1.991       .  S
O298        C308   1.275       .  A
O299       Cu304   2.027       .  S
O299        C308   1.281       .  A
O300       Cu304   2.032       .  S
O300        C307   1.282       .  A
O301       Cu304   1.986       .  S
O301        C306   1.275       .  A
O302       Cu304   1.985       .  S
O302        C305   1.275       .  A
Cu303      Cu304   2.370       .  S
C305        C713   1.480       .  S
C306        C657   1.487       .  S
C307       C1049   1.480       .  S
C308        C697   1.483       .  S
O309       Cu317   2.039       .  S
O309        C319   1.283       .  A
O310       Cu317   2.033       .  S
O310        C320   1.281       .  A
O311       Cu317   1.995       .  S
O311        C321   1.276       .  A
O312       Cu317   1.990       .  S
O312        C322   1.275       .  A
O313       Cu318   2.039       .  S
O313        C322   1.283       .  A
O314       Cu318   2.031       .  S
O314        C321   1.282       .  A
O315       Cu318   1.987       .  S
O315        C320   1.275       .  A
O316       Cu318   1.994       .  S
O316        C319   1.275       .  A
Cu317      Cu318   2.369       .  S
C319        C665   1.484       .  S
C320        C793   1.482       .  S
C321        C641   1.485       .  S
C322        C961   1.484       .  S
O323       Cu331   2.001       .  S
O323        C333   1.276       .  A
O324       Cu331   2.000       .  S
O324        C334   1.276       .  A
O325       Cu331   2.028       .  S
O325        C335   1.281       .  A
O326       Cu331   2.028       .  S
O326        C336   1.282       .  A
O327       Cu332   1.991       .  S
O327        C336   1.275       .  A
O328       Cu332   1.988       .  S
O328        C335   1.276       .  A
O329       Cu332   2.026       .  S
O329        C334   1.281       .  A
O330       Cu332   2.028       .  S
O330        C333   1.281       .  A
Cu331      Cu332   2.370       .  S
C333       C1201   1.483       .  S
C334        C649   1.484       .  S
C335        C681   1.482       .  S
C336        C769   1.483       .  S
O337       Cu345   1.965       .  S
O337        C347   1.271       .  A
O338       Cu345   1.967       .  S
O338        C348   1.272       .  A
O339       Cu345   2.046       .  S
O339        C349   1.284       .  A
O340       Cu345   2.045       .  S
O340        C350   1.283       .  A
O341       Cu346   1.977       .  S
O341        C350   1.274       .  A
O342       Cu346   1.985       .  S
O342        C349   1.273       .  A
O343       Cu346   2.045       .  S
O343        C348   1.283       .  A
O344       Cu346   2.040       .  S
O344        C347   1.284       .  A
Cu345      Cu346   2.368       .  S
C347        C601   1.478       .  S
C348        C609   1.482       .  S
C349       C1089   1.484       .  S
C350        C625   1.485       .  S
O351       Cu359   2.032       .  S
O351        C361   1.282       .  A
O352       Cu359   2.035       .  S
O352        C362   1.282       .  A
O353       Cu359   1.981       .  S
O353        C363   1.274       .  A
O354       Cu359   1.976       .  S
O354        C364   1.273       .  A
O355       Cu360   2.041       .  S
O355        C364   1.283       .  A
O356       Cu360   2.050       .  S
O356        C363   1.284       .  A
O357       Cu360   1.994       .  S
O357        C362   1.275       .  A
O358       Cu360   1.992       .  S
O358        C361   1.275       .  A
Cu359      Cu360   2.369       .  S
C361        C633   1.484       .  S
C362       C1177   1.482       .  S
C363        C585   1.488       .  S
C364        C561   1.483       .  S
O365       Cu373   1.955       .  S
O365        C375   1.271       .  A
O366       Cu373   1.962       .  S
O366        C376   1.272       .  A
O367       Cu373   2.035       .  S
O367        C377   1.282       .  A
O368       Cu373   2.034       .  S
O368        C378   1.283       .  A
O369       Cu374   1.979       .  S
O369        C378   1.273       .  A
O370       Cu374   1.974       .  S
O370        C377   1.273       .  A
O371       Cu374   2.035       .  S
O371        C376   1.283       .  A
O372       Cu374   2.042       .  S
O372        C375   1.282       .  A
Cu373      Cu374   2.371       .  S
C375        C881   1.472       .  S
C376        C545   1.476       .  S
C377        C513   1.479       .  S
C378        C529   1.476       .  S
O379       Cu387   2.039   1_545  S
O379        C389   1.283       .  A
O380       Cu387   2.038       .  S
O380        C390   1.283       .  A
O381       Cu387   1.974       .  S
O381        C391   1.273   1_565  A
O382       Cu387   1.975       .  S
O382        C392   1.273   1_565  A
O383       Cu388   2.033       .  S
O383        C392   1.282       .  A
O384       Cu388   2.029       .  S
O384        C391   1.282       .  A
O385       Cu388   1.976       .  S
O385        C390   1.273   1_545  A
O386       Cu388   1.979       .  S
O386        C389   1.274       .  A
Cu387      Cu388   2.370   1_565  S
C389        C505   1.483       .  S
C390        C481   1.481       .  S
C391        C553   1.476       .  S
C392       C1417   1.479   1_545  S
O393       Cu401   1.962       .  S
O393        C403   1.271       .  A
O394       Cu401   1.957       .  S
O394        C404   1.270       .  A
O395       Cu401   2.054       .  S
O395        C405   1.285       .  A
O396       Cu401   2.054       .  S
O396        C406   1.285       .  A
O397       Cu402   1.972       .  S
O397        C406   1.272       .  A
O398       Cu402   1.968       .  S
O398        C405   1.272       .  A
O399       Cu402   2.046       .  S
O399        C404   1.284       .  A
O400       Cu402   2.048       .  S
O400        C403   1.284       .  A
Cu401      Cu402   2.368       .  S
C403        C537   1.480       .  S
C404        C593   1.476       .  S
C405        C465   1.486       .  S
C406       C1001   1.484       .  S
O407       Cu415   2.056       .  S
O407        C417   1.284       .  A
O408       Cu415   2.046       .  S
O408        C418   1.285       .  A
O409       Cu415   1.967       .  S
O409        C419   1.272       .  A
O410       Cu415   1.977       .  S
O410        C420   1.273       .  A
O411       Cu416   2.052       .  S
O411        C420   1.284       .  A
O412       Cu416   2.043       .  S
O412        C419   1.283       .  A
O413       Cu416   1.981       .  S
O413        C418   1.273       .  A
O414       Cu416   1.980       .  S
O414        C417   1.274       .  A
Cu415      Cu416   2.368       .  S
C417       C1233   1.487       .  S
C418        C473   1.486       .  S
C419        C489   1.479       .  S
C420        C577   1.486       .  S
O421       Cu429   1.972       .  S
O421        C431   1.273       .  A
O422       Cu429   1.969       .  S
O422        C432   1.272       .  A
O423       Cu429   2.025   1_455  S
O423        C433   1.282       .  A
O424       Cu429   2.024       .  S
O424        C434   1.281       .  A
O425       Cu430   1.987       .  S
O425        C434   1.275       .  A
O426       Cu430   1.990   1_455  S
O426        C433   1.275       .  A
O427       Cu430   2.042       .  S
O427        C432   1.283       .  A
O428       Cu430   2.041       .  S
O428        C431   1.283       .  A
Cu429      Cu430   2.370       .  S
C431        C457   1.481       .  S
C432        C833   1.476       .  S
C433        C617   1.481       .  S
C434        C521   1.480       .  S
O435       Cu443   2.033       .  S
O435        C445   1.282       .  A
O436       Cu443   2.031       .  S
O436        C446   1.282   1_655  A
O437       Cu443   1.974       .  S
O437        C447   1.273       .  A
O438       Cu443   1.974       .  S
O438        C448   1.273       .  A
O439       Cu444   2.046       .  S
O439        C448   1.283       .  A
O440       Cu444   2.040       .  S
O440        C447   1.283       .  A
O441       Cu444   1.987   1_455  S
O441        C446   1.274       .  A
O442       Cu444   1.989       .  S
O442        C445   1.275       .  A
Cu443      Cu444   2.370       .  S
C445        C497   1.484       .  S
C446        C569   1.482       .  S
C447        C449   1.481       .  S
C448       C1313   1.480       .  S
C449        C450   1.409       .  A
C449        C454   1.403       .  A
C450        C451   1.396   1_554  A
C450        H459   1.083       .  S
C451        C452   1.399       .  A
C451        H460   1.084       .  S
C452        C458   1.406       .  A
C452        C453   1.416       .  A
C453        C455   1.398       .  A
C453        C454   1.405   1_556  A
C454        H461   1.084       .  S
C455        C456   1.394       .  A
C455        H462   1.084   1_655  S
C456        C457   1.409       .  A
C456        H463   1.083   1_655  S
C457        C458   1.404       .  A
C458        H464   1.084       .  S
C465        C466   1.404       .  A
C465        C470   1.412       .  A
C466        C467   1.403       .  A
C466        H475   1.083       .  S
C467        C468   1.407       .  A
C467        H476   1.083       .  S
C468        C474   1.405   1_556  A
C468        C469   1.410       .  A
C469        C471   1.404       .  A
C469        C470   1.401       .  A
C470        H477   1.084       .  S
C471        C472   1.399   1_556  A
C471        H478   1.084       .  S
C472        C473   1.404       .  A
C472        H479   1.083       .  S
C473        C474   1.414       .  A
C474        H480   1.084       .  S
C481        C482   1.404       .  A
C481        C486   1.411   1_565  A
C482        C483   1.398       .  A
C482        H491   1.083       .  S
C483        C484   1.404       .  A
C483        H492   1.084       .  S
C484        C490   1.400       .  A
C484        C485   1.410       .  A
C485        C487   1.406   1_565  A
C485        C486   1.401   1_565  A
C486        H493   1.084       .  S
C487        C488   1.400   1_545  A
C487        H494   1.084       .  S
C488        C489   1.403       .  A
C488        H495   1.083   1_565  S
C489        C490   1.410       .  A
C490        H496   1.084       .  S
C497        C498   1.404       .  A
C497        C502   1.412       .  A
C498        C499   1.398       .  A
C498        H507   1.083       .  S
C499        C500   1.404       .  A
C499        H508   1.084       .  S
C500        C506   1.401       .  A
C500        C501   1.411       .  A
C501        C503   1.405       .  A
C501        C502   1.404       .  A
C502        H509   1.084       .  S
C503        C504   1.401       .  A
C503        H510   1.084       .  S
C504        C505   1.404       .  A
C504        H511   1.083       .  S
C505        C506   1.410       .  A
C506        H512   1.084       .  S
C513        C514   1.404       .  A
C513        C518   1.409       .  A
C514        C515   1.400       .  A
C514        H523   1.083       .  S
C515        C516   1.405       .  A
C515        H524   1.084       .  S
C516        C522   1.403       .  A
C516        C517   1.411       .  A
C517        C519   1.403       .  A
C517        C518   1.399       .  A
C518        H525   1.084       .  S
C519        C520   1.396       .  A
C519        H526   1.084       .  S
C520        C521   1.404       .  A
C520        H527   1.083       .  S
C521        C522   1.410       .  A
C522        H528   1.084       .  S
C529        C530   1.408   1_545  A
C529        C534   1.401       .  A
C530        C531   1.396       .  A
C530        H539   1.083       .  S
C531        C532   1.399       .  A
C531        H540   1.084       .  S
C532        C538   1.407       .  A
C532        C533   1.417   1_565  A
C533        C535   1.397       .  A
C533        C534   1.404       .  A
C534        H541   1.084       .  S
C535        C536   1.392       .  A
C535        H542   1.084       .  S
C536        C537   1.410   1_545  A
C536        H543   1.083       .  S
C537        C538   1.403       .  A
C538        H544   1.084       .  S
C545        C546   1.409       .  A
C545        C550   1.402       .  A
C546        C547   1.392       .  A
C546        H555   1.083       .  S
C547        C548   1.397       .  A
C547        H556   1.084       .  S
C548        C554   1.402   1_556  A
C548        C549   1.416       .  A
C549        C551   1.398       .  A
C549        C550   1.404       .  A
C550        H557   1.084       .  S
C551        C552   1.395   1_556  A
C551        H558   1.084   1_545  S
C552        C553   1.408       .  A
C552        H559   1.083   1_545  S
C553        C554   1.401       .  A
C554        H560   1.084       .  S
C561        C562   1.404       .  A
C561        C566   1.410       .  A
C562        C563   1.401       .  A
C562        H571   1.083       .  S
C563        C564   1.406       .  A
C563        H572   1.083       .  S
C564        C570   1.404       .  A
C564        C565   1.411       .  A
C565        C567   1.403       .  A
C565        C566   1.400       .  A
C566        H573   1.084       .  S
C567        C568   1.397       .  A
C567        H574   1.084       .  S
C568        C569   1.404       .  A
C568        H575   1.083       .  S
C569        C570   1.411       .  A
C570        H576   1.084       .  S
C577        C578   1.410       .  A
C577        C582   1.405       .  A
C578        C579   1.396       .  A
C578        H587   1.083       .  S
C579        C580   1.398       .  A
C579        H588   1.084       .  S
C580        C586   1.409       .  A
C580        C581   1.416       .  A
C581        C583   1.399       .  A
C581        C582   1.409       .  A
C582        H589   1.084       .  S
C583        C584   1.397       .  A
C583        H590   1.084       .  S
C584        C585   1.411       .  A
C584        H591   1.083       .  S
C585        C586   1.405       .  A
C586        H592   1.084       .  S
C593        C594   1.409       .  A
C593        C598   1.401       .  A
C594        C595   1.392       .  A
C594        H603   1.083       .  S
C595        C596   1.396       .  A
C595        H604   1.084       .  S
C596        C602   1.403       .  A
C596        C597   1.417       .  A
C597        C599   1.398       .  A
C597        C598   1.406       .  A
C598        H605   1.084       .  S
C599        C600   1.394       .  A
C599        H606   1.084       .  S
C600        C601   1.410       .  A
C600        H607   1.083       .  S
C601        C602   1.401       .  A
C602        H608   1.084       .  S
C609        C610   1.404       .  A
C609        C614   1.409       .  A
C610        C611   1.403       .  A
C610        H619   1.083       .  S
C611        C612   1.407       .  A
C611        H620   1.083       .  S
C612        C618   1.405       .  A
C612        C613   1.410       .  A
C613        C615   1.402       .  A
C613        C614   1.398       .  A
C614        H621   1.084       .  S
C615        C616   1.395       .  A
C615        H622   1.084       .  S
C616        C617   1.404       .  A
C616        H623   1.083       .  S
C617        C618   1.412       .  A
C618        H624   1.084       .  S
C625        C626   1.405       .  A
C625        C630   1.410       .  A
C626        C627   1.403       .  A
C626        H635   1.083       .  S
C627        C628   1.406       .  A
C627        H636   1.083       .  S
C628        C634   1.406   1_556  A
C628        C629   1.411       .  A
C629        C631   1.403       .  A
C629        C630   1.401       .  A
C630        H637   1.084       .  S
C631        C632   1.397   1_556  A
C631        H638   1.084       .  S
C632        C633   1.404       .  A
C632        H639   1.083       .  S
C633        C634   1.413       .  A
C634        H640   1.084       .  S
C641        C642   1.405       .  A
C641        C646   1.410       .  A
C642        C643   1.400       .  A
C642        H651   1.083       .  S
C643        C644   1.404       .  A
C643        H652   1.084       .  S
C644        C650   1.405       .  A
C644        C645   1.412       .  A
C645        C647   1.403       .  A
C645        C646   1.404       .  A
C646        H653   1.084       .  S
C647        C648   1.398       .  A
C647        H654   1.084       .  S
C648        C649   1.405       .  A
C648        H655   1.083       .  S
C649        C650   1.410       .  A
C650        H656   1.084       .  S
C657        C658   1.409       .  A
C657        C662   1.407       .  A
C658        C659   1.396       .  A
C658        H667   1.083       .  S
C659        C660   1.399       .  A
C659        H668   1.084       .  S
C660        C666   1.407       .  A
C660        C661   1.415       .  A
C661        C663   1.401       .  A
C661        C662   1.409       .  A
C662        H669   1.084       .  S
C663        C664   1.399       .  A
C663        H670   1.084       .  S
C664        C665   1.408       .  A
C664        H671   1.083       .  S
C665        C666   1.405       .  A
C666        H672   1.084       .  S
C673        C674   1.404       .  A
C673        C678   1.410       .  A
C674        C675   1.394       .  A
C674        H683   1.083       .  S
C675        C676   1.401       .  A
C675        H684   1.084       .  S
C676        C682   1.399       .  A
C676        C677   1.412       .  A
C677        C679   1.405       .  A
C677        C678   1.405       .  A
C678        H685   1.084       .  S
C679        C680   1.401       .  A
C679        H686   1.084       .  S
C680        C681   1.406       .  A
C680        H687   1.083       .  S
C681        C682   1.407       .  A
C682        H688   1.084       .  S
C689        C690   1.405       .  A
C689        C694   1.410       .  A
C690        C691   1.399       .  A
C690        H699   1.083       .  S
C691        C692   1.404       .  A
C691        H700   1.084       .  S
C692        C698   1.403       .  A
C692        C693   1.411       .  A
C693        C695   1.404       .  A
C693        C694   1.403       .  A
C694        H701   1.084       .  S
C695        C696   1.399       .  A
C695        H702   1.084       .  S
C696        C697   1.405       .  A
C696        H703   1.083       .  S
C697        C698   1.410       .  A
C698        H704   1.084       .  S
C705        C706   1.404       .  A
C705        C710   1.410   1_545  A
C706        C707   1.398       .  A
C706        H715   1.083       .  S
C707        C708   1.404       .  A
C707        H716   1.084       .  S
C708        C714   1.401       .  A
C708        C709   1.411   1_545  A
C709        C711   1.404       .  A
C709        C710   1.402       .  A
C710        H717   1.084       .  S
C711        C712   1.399       .  A
C711        H718   1.084       .  S
C712        C713   1.404   1_565  A
C712        H719   1.083       .  S
C713        C714   1.409       .  A
C714        H720   1.084       .  S
C721        C722   1.405       .  A
C721        C726   1.409   1_565  A
C722        C723   1.403       .  A
C722        H731   1.083       .  S
C723        C724   1.406       .  A
C723        H732   1.083       .  S
C724        C730   1.407   1_565  A
C724        C725   1.412   1_565  A
C725        C727   1.402       .  A
C725        C726   1.401       .  A
C726        H733   1.084       .  S
C727        C728   1.396       .  A
C727        H734   1.084       .  S
C728        C729   1.405       .  A
C728        H735   1.083       .  S
C729        C730   1.411       .  A
C730        H736   1.084   1_545  S
C737        C738   1.404       .  A
C737        C742   1.410       .  A
C738        C739   1.399       .  A
C738        H747   1.083   1_565  S
C739        C740   1.404       .  A
C739        H748   1.084   1_565  S
C740        C746   1.402       .  A
C740        C741   1.411       .  A
C741        C743   1.403       .  A
C741        C742   1.400       .  A
C742        H749   1.084       .  S
C743        C744   1.397       .  A
C743        H750   1.084       .  S
C744        C745   1.404       .  A
C744        H751   1.083       .  S
C745        C746   1.409       .  A
C746        H752   1.084       .  S
C753        C754   1.408       .  A
C753        C758   1.402       .  A
C754        C755   1.394       .  A
C754        H763   1.083       .  S
C755        C756   1.398       .  A
C755        H764   1.084       .  S
C756        C762   1.405       .  A
C756        C757   1.417       .  A
C757        C759   1.399       .  A
C757        C758   1.406       .  A
C758        H765   1.084       .  S
C759        C760   1.395       .  A
C759        H766   1.084       .  S
C760        C761   1.409       .  A
C760        H767   1.083       .  S
C761        C762   1.403       .  A
C762        H768   1.084       .  S
C769        C770   1.404       .  A
C769        C774   1.412       .  A
C770        C771   1.396       .  A
C770        H779   1.083       .  S
C771        C772   1.403       .  A
C771        H780   1.084       .  S
C772        C778   1.400       .  A
C772        C773   1.411       .  A
C773        C775   1.407       .  A
C773        C774   1.406       .  A
C774        H781   1.084       .  S
C775        C776   1.403       .  A
C775        H782   1.083       .  S
C776        C777   1.404       .  A
C776        H783   1.083       .  S
C777        C778   1.409       .  A
C778        H784   1.084       .  S
C785        C786   1.404       .  A
C785        C790   1.412       .  A
C786        C787   1.396       .  A
C786        H795   1.083       .  S
C787        C788   1.402       .  A
C787        H796   1.084       .  S
C788        C794   1.401       .  A
C788        C789   1.411       .  A
C789        C791   1.406       .  A
C789        C790   1.405       .  A
C790        H797   1.084       .  S
C791        C792   1.402       .  A
C791        H798   1.084       .  S
C792        C793   1.405       .  A
C792        H799   1.083       .  S
C793        C794   1.408       .  A
C794        H800   1.084       .  S
C801        C802   1.405       .  A
C801        C806   1.410       .  A
C802        C803   1.400       .  A
C802        H811   1.083       .  S
C803        C804   1.404       .  A
C803        H812   1.084       .  S
C804        C810   1.405       .  A
C804        C805   1.411       .  A
C805        C807   1.404       .  A
C805        C806   1.404       .  A
C806        H813   1.084       .  S
C807        C808   1.400       .  A
C807        H814   1.084       .  S
C808        C809   1.405       .  A
C808        H815   1.083       .  S
C809        C810   1.411       .  A
C810        H816   1.084       .  S
C817        C818   1.408       .  A
C817        C822   1.402       .  A
C818        C819   1.397       .  A
C818        H827   1.083       .  S
C819        C820   1.400       .  A
C819        H828   1.084       .  S
C820        C826   1.406       .  A
C820        C821   1.416       .  A
C821        C823   1.397       .  A
C821        C822   1.403       .  A
C822        H829   1.084       .  S
C823        C824   1.393       .  A
C823        H830   1.084       .  S
C824        C825   1.408       .  A
C824        H831   1.083       .  S
C825        C826   1.404       .  A
C826        H832   1.084       .  S
C833        C834   1.402       .  A
C833        C838   1.409       .  A
C834        C835   1.400       .  A
C834        H843   1.083       .  S
C835        C836   1.406       .  A
C835        H844   1.084       .  S
C836        C842   1.401       .  A
C836        C837   1.411       .  A
C837        C839   1.404       .  A
C837        C838   1.399       .  A
C838        H845   1.084       .  S
C839        C840   1.398       .  A
C839        H846   1.084       .  S
C840        C841   1.402       .  A
C840        H847   1.083       .  S
C841        C842   1.410       .  A
C842        H848   1.084       .  S
C849        C850   1.404       .  A
C849        C854   1.412   1_565  A
C850        C851   1.396       .  A
C850        H859   1.083       .  S
C851        C852   1.402   1_565  A
C851        H860   1.084       .  S
C852        C858   1.399       .  A
C852        C853   1.411       .  A
C853        C855   1.407       .  A
C853        C854   1.405       .  A
C854        H861   1.084       .  S
C855        C856   1.402       .  A
C855        H862   1.083       .  S
C856        C857   1.403       .  A
C856        H863   1.083       .  S
C857        C858   1.407       .  A
C858        H864   1.085       .  S
C865        C866   1.404       .  A
C865        C870   1.410       .  A
C866        C867   1.399       .  A
C866        H875   1.083       .  S
C867        C868   1.405       .  A
C867        H876   1.084       .  S
C868        C874   1.401       .  A
C868        C869   1.411       .  A
C869        C871   1.404       .  A
C869        C870   1.400       .  A
C870        H877   1.084       .  S
C871        C872   1.397       .  A
C871        H878   1.084       .  S
C872        C873   1.404       .  A
C872        H879   1.083       .  S
C873        C874   1.410       .  A
C874        H880   1.084       .  S
C881        C882   1.402       .  A
C881        C886   1.407       .  A
C882        C883   1.401       .  A
C882        H891   1.083       .  S
C883        C884   1.407       .  A
C883        H892   1.083       .  S
C884        C890   1.400       .  A
C884        C885   1.410       .  A
C885        C887   1.403       .  A
C885        C886   1.394       .  A
C886        H893   1.085       .  S
C887        C888   1.395       .  A
C887        H894   1.084       .  S
C888        C889   1.402       .  A
C888        H895   1.083       .  S
C889        C890   1.409       .  A
C890        H896   1.084       .  S
C897        C898   1.404       .  A
C897        C902   1.407       .  A
C898        C899   1.400       .  A
C898        H907   1.083       .  S
C899        C900   1.405       .  A
C899        H908   1.083       .  S
C900        C906   1.402       .  A
C900        C901   1.411       .  A
C901        C903   1.402       .  A
C901        C902   1.397       .  A
C902        H909   1.084       .  S
C903        C904   1.395       .  A
C903        H910   1.084       .  S
C904        C905   1.404       .  A
C904        H911   1.083       .  S
C905        C906   1.410       .  A
C906        H912   1.084       .  S
C913        C914   1.403       .  A
C913        C918   1.411       .  A
C914        C915   1.396       .  A
C914        H923   1.083       .  S
C915        C916   1.403       .  A
C915        H924   1.084       .  S
C916        C922   1.398       .  A
C916        C917   1.411       .  A
C917        C919   1.406       .  A
C917        C918   1.402       .  A
C918        H925   1.084       .  S
C919        C920   1.401       .  A
C919        H926   1.083       .  S
C920        C921   1.402       .  A
C920        H927   1.083       .  S
C921        C922   1.408       .  A
C922        H928   1.085       .  S
C929        C930   1.404       .  A
C929        C934   1.408       .  A
C930        C931   1.399       .  A
C930        H939   1.083       .  S
C931        C932   1.404       .  A
C931        H940   1.084       .  S
C932        C938   1.401       .  A
C932        C933   1.411       .  A
C933        C935   1.403       .  A
C933        C934   1.399       .  A
C934        H941   1.084       .  S
C935        C936   1.396       .  A
C935        H942   1.084       .  S
C936        C937   1.404       .  A
C936        H943   1.083       .  S
C937        C938   1.409       .  A
C938        H944   1.084       .  S
C945        C946   1.404       .  A
C945        C950   1.408       .  A
C946        C947   1.398       .  A
C946        H955   1.083       .  S
C947        C948   1.404       .  A
C947        H956   1.084       .  S
C948        C954   1.400       .  A
C948        C949   1.411       .  A
C949        C951   1.402       .  A
C949        C950   1.397       .  A
C950        H957   1.084       .  S
C951        C952   1.395       .  A
C951        H958   1.084       .  S
C952        C953   1.404       .  A
C952        H959   1.083       .  S
C953        C954   1.409       .  A
C954        H960   1.084       .  S
C961        C962   1.404       .  A
C961        C966   1.410       .  A
C962        C963   1.401       .  A
C962        H971   1.083       .  S
C963        C964   1.405       .  A
C963        H972   1.084       .  S
C964        C970   1.405       .  A
C964        C965   1.411       .  A
C965        C967   1.405       .  A
C965        C966   1.404       .  A
C966        H973   1.084       .  S
C967        C968   1.400       .  A
C967        H974   1.084       .  S
C968        C969   1.403       .  A
C968        H975   1.083       .  S
C969        C970   1.411       .  A
C970        H976   1.084       .  S
C977        C978   1.408       .  A
C977        C982   1.402       .  A
C978        C979   1.391       .  A
C978        H987   1.083       .  S
C979        C980   1.397       .  A
C979        H988   1.084       .  S
C980        C986   1.401       .  A
C980        C981   1.416       .  A
C981        C983   1.399       .  A
C981        C982   1.405       .  A
C982        H989   1.084       .  S
C983        C984   1.396       .  A
C983        H990   1.084       .  S
C984        C985   1.408       .  A
C984        H991   1.083       .  S
C985        C986   1.402       .  A
C986        H992   1.084       .  S
C993        C994   1.402       .  A
C993        C998   1.412       .  A
C994        C995   1.399       .  A
C994       H1003   1.083       .  S
C995        C996   1.405       .  A
C995       H1004   1.084       .  S
C996       C1002   1.402       .  A
C996        C997   1.410       .  A
C997        C999   1.407       .  A
C997        C998   1.405       .  A
C998       H1005   1.084       .  S
C999       C1000   1.403       .  A
C999       H1006   1.083       .  S
C1000      C1001   1.403       .  A
C1000      H1007   1.083       .  S
C1001      C1002   1.411       .  A
C1002      H1008   1.084       .  S
C1009      C1010   1.404       .  A
C1009      C1014   1.410       .  A
C1010      C1011   1.400       .  A
C1010      H1019   1.083       .  S
C1011      C1012   1.405       .  A
C1011      H1020   1.084       .  S
C1012      C1018   1.403       .  A
C1012      C1013   1.411       .  A
C1013      C1015   1.403       .  A
C1013      C1014   1.400       .  A
C1014      H1021   1.084       .  S
C1015      C1016   1.397       .  A
C1015      H1022   1.084       .  S
C1016      C1017   1.404       .  A
C1016      H1023   1.083       .  S
C1017      C1018   1.410       .  A
C1018      H1024   1.084       .  S
C1025      C1026   1.404       .  A
C1025      C1030   1.411       .  A
C1026      C1027   1.400       .  A
C1026      H1035   1.083       .  S
C1027      C1028   1.405       .  A
C1027      H1036   1.084       .  S
C1028      C1034   1.403       .  A
C1028      C1029   1.410       .  A
C1029      C1031   1.405       .  A
C1029      C1030   1.402       .  A
C1030      H1037   1.084       .  S
C1031      C1032   1.399       .  A
C1031      H1038   1.084       .  S
C1032      C1033   1.404       .  A
C1032      H1039   1.083       .  S
C1033      C1034   1.412       .  A
C1034      H1040   1.084       .  S
C1041      C1042   1.404       .  A
C1041      C1046   1.409   1_565  A
C1042      C1043   1.401       .  A
C1042      H1051   1.083       .  S
C1043      C1044   1.405       .  A
C1043      H1052   1.083       .  S
C1044      C1050   1.405   1_565  A
C1044      C1045   1.412   1_565  A
C1045      C1047   1.404       .  A
C1045      C1046   1.403       .  A
C1046      H1053   1.084       .  S
C1047      C1048   1.399       .  A
C1047      H1054   1.084       .  S
C1048      C1049   1.403       .  A
C1048      H1055   1.083       .  S
C1049      C1050   1.409       .  A
C1050      H1056   1.084   1_545  S
C1057      C1058   1.406       .  A
C1057      C1062   1.403   1_565  A
C1058      C1059   1.389       .  A
C1058      H1067   1.083       .  S
C1059      C1060   1.396   1_565  A
C1059      H1068   1.084       .  S
C1060      C1066   1.398       .  A
C1060      C1061   1.416       .  A
C1061      C1063   1.401       .  A
C1061      C1062   1.405       .  A
C1062      H1069   1.084       .  S
C1063      C1064   1.397       .  A
C1063      H1070   1.084       .  S
C1064      C1065   1.408       .  A
C1064      H1071   1.083       .  S
C1065      C1066   1.400       .  A
C1066      H1072   1.084       .  S
C1073      C1074   1.403       .  A
C1073      C1078   1.412       .  A
C1074      C1075   1.397       .  A
C1074      H1083   1.083       .  S
C1075      C1076   1.404       .  A
C1075      H1084   1.084       .  S
C1076      C1082   1.398       .  A
C1076      C1077   1.410       .  A
C1077      C1079   1.406       .  A
C1077      C1078   1.402       .  A
C1078      H1085   1.084       .  S
C1079      C1080   1.401       .  A
C1079      H1086   1.084       .  S
C1080      C1081   1.403       .  A
C1080      H1087   1.083       .  S
C1081      C1082   1.411       .  A
C1082      H1088   1.084       .  S
C1089      C1090   1.403       .  A
C1089      C1094   1.412       .  A
C1090      C1091   1.399       .  A
C1090      H1099   1.083       .  S
C1091      C1092   1.405       .  A
C1091      H1100   1.084       .  S
C1092      C1098   1.403       .  A
C1092      C1093   1.411       .  A
C1093      C1095   1.407       .  A
C1093      C1094   1.406       .  A
C1094      H1101   1.084       .  S
C1095      C1096   1.402       .  A
C1095      H1102   1.083       .  S
C1096      C1097   1.403       .  A
C1096      H1103   1.083       .  S
C1097      C1098   1.411       .  A
C1098      H1104   1.084       .  S
C1105      C1106   1.408       .  A
C1105      C1110   1.400       .  A
C1106      C1107   1.390       .  A
C1106      H1115   1.083       .  S
C1107      C1108   1.396       .  A
C1107      H1116   1.084       .  S
C1108      C1114   1.399       .  A
C1108      C1109   1.416       .  A
C1109      C1111   1.398       .  A
C1109      C1110   1.402       .  A
C1110      H1117   1.084       .  S
C1111      C1112   1.394       .  A
C1111      H1118   1.084       .  S
C1112      C1113   1.408       .  A
C1112      H1119   1.083       .  S
C1113      C1114   1.400       .  A
C1114      H1120   1.084       .  S
C1121      C1122   1.409   1_565  A
C1121      C1126   1.402       .  A
C1122      C1123   1.392       .  A
C1122      H1131   1.083       .  S
C1123      C1124   1.397       .  A
C1123      H1132   1.084       .  S
C1124      C1130   1.403       .  A
C1124      C1125   1.417   1_545  A
C1125      C1127   1.398       .  A
C1125      C1126   1.404       .  A
C1126      H1133   1.084       .  S
C1127      C1128   1.394       .  A
C1127      H1134   1.084       .  S
C1128      C1129   1.408   1_565  A
C1128      H1135   1.083       .  S
C1129      C1130   1.401       .  A
C1130      H1136   1.084       .  S
C1137      C1138   1.404       .  A
C1137      C1142   1.410       .  A
C1138      C1139   1.403       .  A
C1138      H1147   1.083   1_565  S
C1139      C1140   1.407       .  A
C1139      H1148   1.083   1_565  S
C1140      C1146   1.406       .  A
C1140      C1141   1.410       .  A
C1141      C1143   1.403       .  A
C1141      C1142   1.399       .  A
C1142      H1149   1.084       .  S
C1143      C1144   1.396       .  A
C1143      H1150   1.084       .  S
C1144      C1145   1.404       .  A
C1144      H1151   1.083       .  S
C1145      C1146   1.412       .  A
C1146      H1152   1.084       .  S
C1153      C1154   1.404       .  A
C1153      C1158   1.410       .  A
C1154      C1155   1.399       .  A
C1154      H1163   1.083       .  S
C1155      C1156   1.404       .  A
C1155      H1164   1.084       .  S
C1156      C1162   1.403       .  A
C1156      C1157   1.412       .  A
C1157      C1159   1.405       .  A
C1157      C1158   1.403       .  A
C1158      H1165   1.084       .  S
C1159      C1160   1.399       .  A
C1159      H1166   1.084       .  S
C1160      C1161   1.403       .  A
C1160      H1167   1.083       .  S
C1161      C1162   1.408       .  A
C1162      H1168   1.084       .  S
C1169      C1170   1.404       .  A
C1169      C1174   1.410       .  A
C1170      C1171   1.401       .  A
C1170      H1179   1.083       .  S
C1171      C1172   1.405       .  A
C1171      H1180   1.084       .  S
C1172      C1178   1.405       .  A
C1172      C1173   1.412       .  A
C1173      C1175   1.405       .  A
C1173      C1174   1.404       .  A
C1174      H1181   1.084       .  S
C1175      C1176   1.400       .  A
C1175      H1182   1.084       .  S
C1176      C1177   1.403       .  A
C1176      H1183   1.083       .  S
C1177      C1178   1.410       .  A
C1178      H1184   1.084       .  S
C1185      C1186   1.405       .  A
C1185      C1190   1.409       .  A
C1186      C1187   1.401       .  A
C1186      H1195   1.083       .  S
C1187      C1188   1.405       .  A
C1187      H1196   1.084       .  S
C1188      C1194   1.404       .  A
C1188      C1189   1.411       .  A
C1189      C1191   1.403       .  A
C1189      C1190   1.401       .  A
C1190      H1197   1.084       .  S
C1191      C1192   1.397       .  A
C1191      H1198   1.084       .  S
C1192      C1193   1.404       .  A
C1192      H1199   1.083       .  S
C1193      C1194   1.411       .  A
C1194      H1200   1.084       .  S
C1201      C1202   1.405       .  A
C1201      C1206   1.409       .  A
C1202      C1203   1.399       .  A
C1202      H1211   1.083       .  S
C1203      C1204   1.404       .  A
C1203      H1212   1.084       .  S
C1204      C1210   1.405       .  A
C1204      C1205   1.413       .  A
C1205      C1207   1.404       .  A
C1205      C1206   1.405       .  A
C1206      H1213   1.084       .  S
C1207      C1208   1.399       .  A
C1207      H1214   1.084       .  S
C1208      C1209   1.404       .  A
C1208      H1215   1.083       .  S
C1209      C1210   1.408       .  A
C1210      H1216   1.084       .  S
C1217      C1218   1.405       .  A
C1217      C1222   1.411       .  A
C1218      C1219   1.393       .  A
C1218      H1227   1.083       .  S
C1219      C1220   1.400       .  A
C1219      H1228   1.084       .  S
C1220      C1226   1.397       .  A
C1220      C1221   1.411       .  A
C1221      C1223   1.407       .  A
C1221      C1222   1.407       .  A
C1222      H1229   1.084       .  S
C1223      C1224   1.404       .  A
C1223      H1230   1.083       .  S
C1224      C1225   1.404       .  A
C1224      H1231   1.083       .  S
C1225      C1226   1.407       .  A
C1226      H1232   1.084       .  S
C1233      C1234   1.404       .  A
C1233      C1238   1.410       .  A
C1234      C1235   1.406       .  A
C1234      H1243   1.083       .  S
C1235      C1236   1.408       .  A
C1235      H1244   1.083       .  S
C1236      C1242   1.410       .  A
C1236      C1237   1.411       .  A
C1237      C1239   1.403   1_565  A
C1237      C1238   1.402       .  A
C1238      H1245   1.084       .  S
C1239      C1240   1.397       .  A
C1239      H1246   1.084       .  S
C1240      C1241   1.403       .  A
C1240      H1247   1.083       .  S
C1241      C1242   1.413   1_545  A
C1242      H1248   1.084       .  S
C1249      C1250   1.406       .  A
C1249      C1254   1.410       .  A
C1250      C1251   1.401       .  A
C1250      H1259   1.083       .  S
C1251      C1252   1.404       .  A
C1251      H1260   1.084       .  S
C1252      C1258   1.407       .  A
C1252      C1253   1.412       .  A
C1253      C1255   1.403       .  A
C1253      C1254   1.406       .  A
C1254      H1261   1.084       .  S
C1255      C1256   1.399       .  A
C1255      H1262   1.084       .  S
C1256      C1257   1.406       .  A
C1256      H1263   1.083       .  S
C1257      C1258   1.411       .  A
C1258      H1264   1.084       .  S
C1265      C1266   1.406       .  A
C1265      C1270   1.409       .  A
C1266      C1267   1.400       .  A
C1266      H1275   1.083       .  S
C1267      C1268   1.404       .  A
C1267      H1276   1.084       .  S
C1268      C1274   1.406       .  A
C1268      C1269   1.412       .  A
C1269      C1271   1.403       .  A
C1269      C1270   1.405       .  A
C1270      H1277   1.084       .  S
C1271      C1272   1.399       .  A
C1271      H1278   1.084   1_545  S
C1272      C1273   1.406       .  A
C1272      H1279   1.083   1_545  S
C1273      C1274   1.410       .  A
C1274      H1280   1.084       .  S
C1281      C1282   1.403       .  A
C1281      C1286   1.410       .  A
C1282      C1283   1.398       .  A
C1282      H1291   1.083       .  S
C1283      C1284   1.404       .  A
C1283      H1292   1.084       .  S
C1284      C1290   1.401       .  A
C1284      C1285   1.411       .  A
C1285      C1287   1.405       .  A
C1285      C1286   1.403       .  A
C1286      H1293   1.084       .  S
C1287      C1288   1.400       .  A
C1287      H1294   1.084       .  S
C1288      C1289   1.403       .  A
C1288      H1295   1.083       .  S
C1289      C1290   1.409       .  A
C1290      H1296   1.084       .  S
C1297      C1298   1.407       .  A
C1297      C1302   1.403       .  A
C1298      C1299   1.395       .  A
C1298      H1307   1.083       .  S
C1299      C1300   1.399       .  A
C1299      H1308   1.084       .  S
C1300      C1306   1.406       .  A
C1300      C1301   1.417       .  A
C1301      C1303   1.399       .  A
C1301      C1302   1.408       .  A
C1302      H1309   1.084       .  S
C1303      C1304   1.396       .  A
C1303      H1310   1.084       .  S
C1304      C1305   1.409       .  A
C1304      H1311   1.083       .  S
C1305      C1306   1.403       .  A
C1306      H1312   1.084       .  S
C1313      C1314   1.404       .  A
C1313      C1318   1.408       .  A
C1314      C1315   1.403       .  A
C1314      H1323   1.083       .  S
C1315      C1316   1.407       .  A
C1315      H1324   1.083       .  S
C1316      C1322   1.406       .  A
C1316      C1317   1.411       .  A
C1317      C1319   1.403       .  A
C1317      C1318   1.399       .  A
C1318      H1325   1.084       .  S
C1319      C1320   1.396       .  A
C1319      H1326   1.084       .  S
C1320      C1321   1.403       .  A
C1320      H1327   1.083       .  S
C1321      C1322   1.411       .  A
C1322      H1328   1.084       .  S
C1329      C1330   1.405       .  A
C1329      C1334   1.411       .  A
C1330      C1331   1.397       .  A
C1330      H1339   1.083       .  S
C1331      C1332   1.402       .  A
C1331      H1340   1.084       .  S
C1332      C1338   1.402       .  A
C1332      C1333   1.412       .  A
C1333      C1335   1.405       .  A
C1333      C1334   1.406       .  A
C1334      H1341   1.084       .  S
C1335      C1336   1.401       .  A
C1335      H1342   1.083       .  S
C1336      C1337   1.405       .  A
C1336      H1343   1.083       .  S
C1337      C1338   1.409       .  A
C1338      H1344   1.084       .  S
C1345      C1346   1.408       .  A
C1345      C1350   1.405       .  A
C1346      C1347   1.395       .  A
C1346      H1355   1.083       .  S
C1347      C1348   1.399       .  A
C1347      H1356   1.084       .  S
C1348      C1354   1.404       .  A
C1348      C1349   1.415       .  A
C1349      C1351   1.399   1_655  A
C1349      C1350   1.404       .  A
C1350      H1357   1.084       .  S
C1351      C1352   1.395       .  A
C1351      H1358   1.084       .  S
C1352      C1353   1.409   1_455  A
C1352      H1359   1.083       .  S
C1353      C1354   1.404       .  A
C1354      H1360   1.084       .  S
C1361      C1362   1.403       .  A
C1361      C1366   1.409       .  A
C1362      C1363   1.401       .  A
C1362      H1371   1.083       .  S
C1363      C1364   1.406       .  A
C1363      H1372   1.083       .  S
C1364      C1370   1.404       .  A
C1364      C1365   1.411       .  A
C1365      C1367   1.404       .  A
C1365      C1366   1.401       .  A
C1366      H1373   1.084       .  S
C1367      C1368   1.398       .  A
C1367      H1374   1.084       .  S
C1368      C1369   1.404       .  A
C1368      H1375   1.083       .  S
C1369      C1370   1.410       .  A
C1370      H1376   1.084       .  S
C1377      C1378   1.404       .  A
C1377      C1382   1.411       .  A
C1378      C1379   1.393       .  A
C1378      H1387   1.083       .  S
C1379      C1380   1.401       .  A
C1379      H1388   1.084       .  S
C1380      C1386   1.396       .  A
C1380      C1381   1.411       .  A
C1381      C1383   1.407       .  A
C1381      C1382   1.405       .  A
C1382      H1389   1.084       .  S
C1383      C1384   1.403       .  A
C1383      H1390   1.083       .  S
C1384      C1385   1.404       .  A
C1384      H1391   1.083       .  S
C1385      C1386   1.407       .  A
C1386      H1392   1.085       .  S
C1393      C1394   1.405       .  A
C1393      C1398   1.408       .  A
C1394      C1395   1.399       .  A
C1394      H1403   1.083       .  S
C1395      C1396   1.404       .  A
C1395      H1404   1.084       .  S
C1396      C1402   1.405       .  A
C1396      C1397   1.412   1_565  A
C1397      C1399   1.402       .  A
C1397      C1398   1.403   1_545  A
C1398      H1405   1.084   1_565  S
C1399      C1400   1.397       .  A
C1399      H1406   1.084       .  S
C1400      C1401   1.406       .  A
C1400      H1407   1.083       .  S
C1401      C1402   1.409   1_545  A
C1402      H1408   1.084       .  S
C1409      C1410   1.402       .  A
C1409      C1414   1.407       .  A
C1410      C1411   1.397       .  A
C1410      H1419   1.083       .  S
C1411      C1412   1.404       .  A
C1411      H1420   1.084       .  S
C1412      C1418   1.400       .  A
C1412      C1413   1.412       .  A
C1413      C1415   1.404   1_565  A
C1413      C1414   1.402       .  A
C1414      H1421   1.084       .  S
C1415      C1416   1.399       .  A
C1415      H1422   1.084       .  S
C1416      C1417   1.404   1_545  A
C1416      H1423   1.083       .  S
C1417      C1418   1.409       .  A
C1418      H1424   1.084       .  S
C1425      C1426   1.406   1_565  A
C1425      C1430   1.407       .  A
C1426      C1427   1.401       .  A
C1426      H1435   1.083       .  S
C1427      C1428   1.404   1_545  A
C1427      H1436   1.084       .  S
C1428      C1434   1.406   1_565  A
C1428      C1429   1.413       .  A
C1429      C1431   1.402       .  A
C1429      C1430   1.402       .  A
C1430      H1437   1.084       .  S
C1431      C1432   1.396       .  A
C1431      H1438   1.084       .  S
C1432      C1433   1.405       .  A
C1432      H1439   1.083       .  S
C1433      C1434   1.409   1_565  A
C1434      H1440   1.084       .  S
C1441      C1442   1.405       .  A
C1441      C1446   1.411       .  A
C1442      C1443   1.399       .  A
C1442      H1451   1.083       .  S
C1443      C1444   1.404       .  A
C1443      H1452   1.084       .  S
C1444      C1450   1.403       .  A
C1444      C1445   1.411       .  A
C1445      C1447   1.405       .  A
C1445      C1446   1.405       .  A
C1446      H1453   1.084       .  S
C1447      C1448   1.401       .  A
C1447      H1454   1.084       .  S
C1448      C1449   1.405       .  A
C1448      H1455   1.083       .  S
C1449      C1450   1.411       .  A
C1450      H1456   1.084       .  S
C1457      C1458   1.405       .  A
C1457      C1462   1.409       .  A
C1458      C1459   1.397       .  A
C1458      H1467   1.083       .  S
C1459      C1460   1.402       .  A
C1459      H1468   1.084       .  S
C1460      C1466   1.402       .  A
C1460      C1461   1.412       .  A
C1461      C1463   1.403       .  A
C1461      C1462   1.402       .  A
C1462      H1469   1.084       .  S
C1463      C1464   1.398       .  A
C1463      H1470   1.084       .  S
C1464      C1465   1.405       .  A
C1464      H1471   1.083       .  S
C1465      C1466   1.408       .  A
C1466      H1472   1.084       .  S
