geometry optimzed in LAMMPS
_audit_creation_date              2020-12-01 
_audit_creation_method            'lammps2cif' 
_symmetry_space_group_name_H-M    'P1' 
_symmetry_Int_Tables_number       1 
_symmetry_cell_setting            triclinic 
loop_ 
_symmetry_equiv_pos_as_xyz 
  x,y,z 
_cell_length_a                    41.79933909 
_cell_length_b                    28.98443606515934 
_cell_length_c                    86.34041232686495 
_cell_angle_alpha                 89.7741320283533 
_cell_angle_beta                  90.06085716896179 
_cell_angle_gamma                 89.85987110836788 
loop_ 
_atom_site_label 
_atom_site_type_symbol 
_atom_site_fract_x 
_atom_site_fract_y 
_atom_site_fract_z 
_atom_site_charge 
O1          O  0.80454464  0.98177578  0.18077815    -0.73000
O2          O  0.71175583  0.02427349  0.18312350    -0.74000
O3          O  0.75774440  0.98986339  0.20435612    -0.62600
O4          O  0.75879316  0.02128548  0.16003927    -0.71000
O5          O  0.74370498  0.44454777  0.15372142    -0.70500
O6          O  0.74312755  0.41454618  0.19998313    -0.61800
O7          O  0.69715819  0.95283580  0.17762854    -0.74300
O8          O  0.78795256  0.40503422  0.17545496    -0.73100
Cu9        Cu  0.75888691  0.00670619  0.18228366     1.04600
Cu10       Cu  0.74288887  0.42534293  0.17658912     1.04300
C11         C  0.81134750  0.43213051  0.17774348     0.93200
C12         C  0.68981812  0.99453837  0.18032372     0.92400
C13         C  0.75103459  0.44706783  0.20926670     0.84500
C14         C  0.75026828  0.99225458  0.14986499     0.90800
O15         O  0.79462409  0.44708717  0.30800814    -0.73000
O16         O  0.70183631  0.98845679  0.30907890    -0.74000
O17         O  0.74791648  0.45282457  0.33137939    -0.62600
O18         O  0.75178424  0.47924955  0.28502120    -0.71000
O19         O  0.73439401  0.40799988  0.28129164    -0.70500
O20         O  0.73020644  0.38305411  0.32572540    -0.61800
O21         O  0.68646082  0.42164919  0.30402755    -0.74300
O22         O  0.77913476  0.37550083  0.30339336    -0.73100
Cu23       Cu  0.75040629  0.47020295  0.30847889     1.04600
Cu24       Cu  0.73188146  0.39464628  0.30344616     1.04300
C25         C  0.80152502  0.40494027  0.30573025     0.93200
C26         C  0.68170976  0.46477656  0.30652545     0.92400
C27         C  0.73898238  0.41246759  0.33571124     0.84500
C28         C  0.74396644  0.44633350  0.27588199     0.90800
O29         O  0.00340570  0.35982471  0.20150917    -0.73000
O30         O  0.00594386  0.34823224  0.15472157    -0.74000
O31         O  0.95980894  0.37601560  0.17688061    -0.62600
O32         O  0.05024450  0.33700548  0.17923675    -0.71000
O33         O  0.03646517  0.26387360  0.18136200    -0.70500
O34         O  0.94316637  0.30386674  0.17893845    -0.61800
O35         O  0.99060576  0.27559518  0.15758329    -0.74300
O36         O  0.98829274  0.28664636  0.20282519    -0.73100
Cu37       Cu  0.00534110  0.35784626  0.17800963     1.04600
Cu38       Cu  0.98906617  0.27997510  0.18022438     1.04300
C39         C  0.99551693  0.32421806  0.20947465     0.93200
C40         C  0.99864706  0.30906919  0.14888348     0.92400
C41         C  0.93700337  0.34707850  0.17760954     0.84500
C42         C  0.05826852  0.29484530  0.18074772     0.90800
O43         O  0.03308210  0.27253993  0.30867564    -0.73000
O44         O  0.94415370  0.31913109  0.30795591    -0.74000
O45         O  0.98694875  0.28703790  0.28504947    -0.62600
O46         O  0.99032218  0.30969140  0.33151881    -0.71000
O47         O  0.00961875  0.37939221  0.32658980    -0.70500
O48         O  0.00337849  0.35907012  0.28170301    -0.61800
O49         O  0.96041219  0.39081286  0.30452244    -0.74300
O50         O  0.05183535  0.34241568  0.30385679    -0.73100
Cu51       Cu  0.98813137  0.29453932  0.30848100     1.04600
Cu52       Cu  0.00704468  0.37030531  0.30404027     1.04300
C53         C  0.05663624  0.29912007  0.30593764     0.93200
C54         C  0.93761777  0.36178231  0.30629536     0.92400
C55         C  0.99430054  0.32077928  0.27610862     0.84500
C56         C  0.99973192  0.34935035  0.33620694     0.90800
O57         O  0.50661746  0.10323683  0.15526922    -0.73000
O58         O  0.50365548  0.11456759  0.20207378    -0.74000
O59         O  0.54995825  0.08981454  0.18001112    -0.62600
O60         O  0.46075386  0.13272401  0.17736866    -0.71000
O61         O  0.44214517  0.06155227  0.17951671    -0.70500
O62         O  0.53430002  0.01693127  0.18171369    -0.61800
O63         O  0.48699025  0.04213311  0.20339940    -0.74300
O64         O  0.48884201  0.03143655  0.15792545    -0.73100
Cu65       Cu  0.50574964  0.11264157  0.17860634     1.04600
Cu66       Cu  0.48740883  0.03546478  0.18069009     1.04300
C67         C  0.49816008  0.06460446  0.14939923     0.93200
C68         C  0.49552805  0.07909063  0.21006279     0.92400
C69         C  0.55660065  0.04726132  0.18140341     0.84500
C70         C  0.43721673  0.10505870  0.17814465     0.90800
O71         O  0.51033277  0.14457860  0.32809576    -0.73000
O72         O  0.50865554  0.12795715  0.28262257    -0.74000
O73         O  0.46508104  0.16356071  0.30440386    -0.62600
O74         O  0.55372880  0.10502383  0.30615472    -0.71000
O75         O  0.53114083  0.03656969  0.30935769    -0.70500
O76         O  0.44497568  0.09328381  0.30725471    -0.61800
O77         O  0.48753365  0.05822352  0.28521990    -0.74300
O78         O  0.48822456  0.07598454  0.33169413    -0.73100
Cu79       Cu  0.51039306  0.13763850  0.30526369     1.04600
Cu80       Cu  0.48736296  0.06357134  0.30855336     1.04300
C81         C  0.49845129  0.11428757  0.33712501     0.93200
C82         C  0.49703327  0.09163671  0.27664864     0.92400
C83         C  0.44097943  0.13644271  0.30523515     0.84500
C84         C  0.55615921  0.06114658  0.30780406     0.90800
O85         O  0.24772086  0.21420289  0.15354607    -0.73000
O86         O  0.24618519  0.18116279  0.19938749    -0.74000
O87         O  0.20263628  0.21711527  0.17761076    -0.62600
O88         O  0.29079111  0.17168793  0.17507371    -0.71000
O89         O  0.31031620  0.24090786  0.18039232    -0.70500
O90         O  0.21812138  0.28748113  0.18367106    -0.61800
O91         O  0.26450025  0.25140487  0.20403428    -0.74300
O92         O  0.26487019  0.28350954  0.16006374    -0.73100
Cu93       Cu  0.24636208  0.19357257  0.17615371     1.04600
Cu94       Cu  0.26522232  0.26824008  0.18218463     1.04300
C95         C  0.25546323  0.25552864  0.14974223     0.93200
C96         C  0.25475931  0.21258014  0.20893962     0.92400
C97         C  0.19561182  0.25837903  0.18119149     0.84500
C98         C  0.31454132  0.19783399  0.17759798     0.90800
O99         O  0.20421858  0.24591809  0.30785159    -0.73000
O100        O  0.29612348  0.21469212  0.30746774    -0.74000
O101        O  0.25163403  0.24121257  0.28461115    -0.62600
O102        O  0.24823593  0.21369631  0.33078172    -0.71000
O103        O  0.23608299  0.14178351  0.32501430    -0.70500
O104        O  0.23862558  0.16812423  0.28055880    -0.61800
O105        O  0.28514500  0.14171073  0.30232168    -0.74300
O106        O  0.19021660  0.17355878  0.30314120    -0.73100
Cu107      Cu  0.25038992  0.23146410  0.30791676     1.04600
Cu108      Cu  0.23707277  0.15376583  0.30264739     1.04300
C109        C  0.18267971  0.21594507  0.30531698     0.93200
C110        C  0.30560255  0.17401782  0.30441636     0.92400
C111        C  0.24590576  0.20775732  0.27535603     0.84500
C112        C  0.24180203  0.17240504  0.33513921     0.90800
O113        O  0.24220506  0.38888308  0.82782995    -0.73000
O114        O  0.24054738  0.40889149  0.78275009    -0.74000
O115        O  0.28824304  0.38123224  0.80401336    -0.62600
O116        O  0.19509665  0.42110971  0.80652780    -0.71000
O117        O  0.21162237  0.49276753  0.81020332    -0.70500
O118        O  0.30266588  0.45405071  0.80721405    -0.61800
O119        O  0.25574881  0.48152830  0.78540361    -0.74300
O120        O  0.25839283  0.46076092  0.83195676    -0.73100
Cu121      Cu  0.24095132  0.39756030  0.80518455     1.04600
Cu122      Cu  0.25756432  0.47489430  0.80883087     1.04300
C123        C  0.25077086  0.42065995  0.83703143     0.93200
C124        C  0.24803067  0.44750861  0.77674608     0.92400
C125        C  0.31015765  0.41186010  0.80529000     0.84500
C126        C  0.18887561  0.46398744  0.80855097     0.90800
O127        O  0.24814060  0.44069956  0.65431002    -0.73000
O128        O  0.24475060  0.41862129  0.70076671    -0.74000
O129        O  0.20163114  0.44784864  0.67781614    -0.62600
O130        O  0.29165961  0.40599090  0.67731645    -0.71000
O131        O  0.30912856  0.47680071  0.68155207    -0.70500
O132        O  0.21813943  0.02303685  0.68087805    -0.61800
O133        O  0.26081485  0.49058166  0.70414745    -0.74300
O134        O  0.26481206  0.51174084  0.65911593    -0.73100
Cu135      Cu  0.24615413  0.42575266  0.67737354     1.04600
Cu136      Cu  0.26338626  0.50230883  0.68174600     1.04300
C137        C  0.25615483  0.48098085  0.64952904     0.93200
C138        C  0.25169539  0.45219740  0.70976557     0.92400
C139        C  0.19406921  0.48982809  0.68005017     0.84500
C140        C  0.31479718  0.43368687  0.67957334     0.90800
O141        O  0.45321079  0.33103918  0.80905753    -0.73000
O142        O  0.54102750  0.28313740  0.81076327    -0.74000
O143        O  0.49811096  0.31974917  0.83331009    -0.62600
O144        O  0.49667037  0.30010234  0.78654920    -0.71000
O145        O  0.51594325  0.37078583  0.78364654    -0.70500
O146        O  0.51574704  0.39070109  0.82885900    -0.61800
O147        O  0.56127887  0.35274563  0.80745348    -0.74300
O148        O  0.46943163  0.40258942  0.80509499    -0.73100
Cu149      Cu  0.49672030  0.30608441  0.81007508     1.04600
Cu150      Cu  0.51637364  0.38170357  0.80617391     1.04300
C151        C  0.44664536  0.37333735  0.80670995     0.93200
C152        C  0.56529972  0.30903890  0.80913345     0.92400
C153        C  0.50665542  0.35954793  0.83826528     0.84500
C154        C  0.50580533  0.33339898  0.77779418     0.90800
O155        O  0.53778408  0.25589892  0.68410241    -0.73000
O156        O  0.44622270  0.30362894  0.68268155    -0.74000
O157        O  0.49005762  0.26420948  0.66112479    -0.62600
O158        O  0.49326109  0.29071237  0.70586029    -0.71000
O159        O  0.51161715  0.36132290  0.70160488    -0.70500
O160        O  0.50785409  0.33390404  0.65530791    -0.61800
O161        O  0.46501483  0.37318510  0.67776943    -0.74300
O162        O  0.55457883  0.32678204  0.67903267    -0.73100
Cu163      Cu  0.49116647  0.27627005  0.68359489     1.04600
Cu164      Cu  0.51030163  0.35134140  0.67822088     1.04300
C165        C  0.56064843  0.28442047  0.68170094     0.93200
C166        C  0.44122611  0.34669326  0.68024626     0.92400
C167        C  0.49901739  0.29354601  0.65103198     0.84500
C168        C  0.50306545  0.32924839  0.71098661     0.90800
O169        O  0.74686393  0.18450553  0.65501882    -0.73000
O170        O  0.74607334  0.15946353  0.70130843    -0.74000
O171        O  0.70183110  0.19311138  0.67924850    -0.62600
O172        O  0.79093951  0.14649984  0.67689614    -0.71000
O173        O  0.80981567  0.21638872  0.68114119    -0.70500
O174        O  0.71859779  0.26429850  0.68320598    -0.61800
O175        O  0.76380951  0.23067333  0.70476815    -0.74300
O176        O  0.76533339  0.25439535  0.65991995    -0.73100
Cu177      Cu  0.74590141  0.16834092  0.67795425     1.04600
Cu178      Cu  0.76511361  0.24377751  0.68240596     1.04300
C179        C  0.75591189  0.22432449  0.65026388     0.93200
C180        C  0.75428092  0.19239788  0.71031824     0.92400
C181        C  0.69561186  0.23559381  0.68153639     0.84500
C182        C  0.81471553  0.17336750  0.67873684     0.90800
O183        O  0.79987469  0.19354256  0.80823149    -0.73000
O184        O  0.71132551  0.23807085  0.80985501    -0.74000
O185        O  0.75498522  0.20285983  0.83233789    -0.62600
O186        O  0.75575870  0.22265125  0.78574124    -0.71000
O187        O  0.73886890  0.15072248  0.78306008    -0.70500
O188        O  0.73674158  0.13224575  0.82832017    -0.61800
O189        O  0.69188075  0.16803903  0.80616035    -0.74300
O190        O  0.78460672  0.12125769  0.80517375    -0.73100
Cu191      Cu  0.75594239  0.21671147  0.80919630     1.04600
Cu192      Cu  0.73728381  0.14050975  0.80559587     1.04300
C193        C  0.80700458  0.15132185  0.80633510     0.93200
C194        C  0.68746438  0.21157081  0.80800120     0.92400
C195        C  0.74636228  0.16332917  0.83756506     0.84500
C196        C  0.74786824  0.18868064  0.77709212     0.90800
O197        O  0.00698361  0.10077429  0.70073327    -0.73000
O198        O  0.00908421  0.07913217  0.65434570    -0.74000
O199        O  0.96363190  0.11356861  0.67593636    -0.62600
O200        O  0.05334033  0.07141750  0.67909611    -0.71000
O201        O  0.03782570  0.99901404  0.68253601    -0.70500
O202        O  0.94524220  0.04294919  0.67998064    -0.61800
O203        O  0.99148518  0.00832930  0.65895052    -0.74300
O204        O  0.99064454  0.02868574  0.70379905    -0.73100
Cu205      Cu  0.00877413  0.09378264  0.67737743     1.04600
Cu206      Cu  0.99066444  0.01726746  0.68142374     1.04300
C207        C  0.99883897  0.06716039  0.70956220     0.93200
C208        C  0.00069337  0.03921735  0.64948035     0.92400
C209        C  0.94019425  0.08610452  0.67770358     0.84500
C210        C  0.06015099  0.02904849  0.68114626     0.90800
O211        O  0.95012116  0.07110596  0.80759004    -0.73000
O212        O  0.03961038  0.02668027  0.80975445    -0.74000
O213        O  0.99551112  0.06665416  0.83168437    -0.62600
O214        O  0.99406750  0.03720939  0.78560207    -0.71000
O215        O  0.01064263  0.10872147  0.78144085    -0.70500
O216        O  0.01420154  0.13556165  0.82555418    -0.61800
O217        O  0.05825579  0.09636465  0.80413498    -0.74300
O218        O  0.96598865  0.14260730  0.80286735    -0.73100
Cu219      Cu  0.99436931  0.04781186  0.80890725     1.04600
Cu220      Cu  0.01297479  0.12316472  0.80337312     1.04300
C221        C  0.94346633  0.11323449  0.80492944     0.93200
C222        C  0.06296953  0.05325055  0.80670058     0.92400
C223        C  0.00414902  0.10732310  0.83571573     0.84500
C224        C  0.00179664  0.06984406  0.77627350     0.90800
O225        O  0.80748402  0.29086231  0.55476421    -0.73000
O226        O  0.71533978  0.24568729  0.55307895    -0.74000
O227        O  0.76065262  0.27668887  0.53156807    -0.62600
O228        O  0.76300734  0.25426916  0.57623129    -0.71000
O229        O  0.74567506  0.32462283  0.58118586    -0.70500
O230        O  0.74294694  0.34802142  0.53472908    -0.61800
O231        O  0.69955867  0.31730156  0.55738637    -0.74300
O232        O  0.78872384  0.36112365  0.55870386    -0.73100
Cu233      Cu  0.76230495  0.26448031  0.55379396     1.04600
Cu234      Cu  0.74374614  0.34033021  0.55817156     1.04300
C235        C  0.81242010  0.33402276  0.55689828     0.93200
C236        C  0.69277969  0.27525194  0.55487053     0.92400
C237        C  0.75075584  0.31453250  0.52583314     0.84500
C238        C  0.75445938  0.28462353  0.58597587     0.90800
O239        O  0.73210988  0.35161622  0.45358309    -0.73000
O240        O  0.72719630  0.37458403  0.40904932    -0.74000
O241        O  0.68375206  0.33810900  0.43114264    -0.62600
O242        O  0.77645002  0.38311449  0.43116933    -0.71000
O243        O  0.79221308  0.31085255  0.42754645    -0.70500
O244        O  0.70169792  0.26784155  0.42618806    -0.61800
O245        O  0.74560417  0.30500946  0.40372509    -0.74300
O246        O  0.74785328  0.27946459  0.45007258    -0.73100
Cu247      Cu  0.72922884  0.36420333  0.43137923     1.04600
Cu248      Cu  0.74732108  0.28817098  0.42669567     1.04300
C249        C  0.74070943  0.31286625  0.45912988     0.93200
C250        C  0.73654072  0.34514417  0.39917177     0.92400
C251        C  0.67835239  0.29519205  0.42867900     0.84500
C252        C  0.79889367  0.35331237  0.42935136     0.90800
O253        O  0.00542051  0.38462507  0.40853012    -0.73000
O254        O  0.00107555  0.40628285  0.45345203    -0.74000
O255        O  0.95723515  0.37207245  0.43128288    -0.62600
O256        O  0.04818530  0.42326076  0.43071880    -0.71000
O257        O  0.02797237  0.49268525  0.42604750    -0.70500
O258        O  0.93934017  0.44300796  0.42707987    -0.61800
O259        O  0.98237963  0.47715638  0.44997063    -0.74300
O260        O  0.98581910  0.45442004  0.40347375    -0.73100
Cu261      Cu  0.00368994  0.39416928  0.43112002     1.04600
Cu262      Cu  0.98324075  0.46933525  0.42647953     1.04300
C263        C  0.99608334  0.41506417  0.39889724     0.93200
C264        C  0.99128448  0.44433814  0.45901369     0.92400
C265        C  0.93385960  0.40025358  0.42929092     0.84500
C266        C  0.05208475  0.46666522  0.42847183     0.90800
O267        O  0.94145212  0.46680748  0.55615006    -0.73000
O268        O  0.03324336  0.51343956  0.55364994    -0.74000
O269        O  0.98612780  0.48471630  0.53222997    -0.62600
O270        O  0.98800764  0.50123641  0.57747919    -0.71000
O271        O  0.00610194  0.43008500  0.58124727    -0.70500
O272        O  0.00371293  0.41285452  0.53442378    -0.61800
O273        O  0.04955110  0.44138799  0.55644092    -0.74300
O274        O  0.96084049  0.39619343  0.55919393    -0.73100
Cu275      Cu  0.98648859  0.49399818  0.55481017     1.04600
Cu276      Cu  0.00558884  0.41759815  0.55795726     1.04300
C277        C  0.93699880  0.42327696  0.55782658     0.93200
C278        C  0.05605454  0.48391476  0.55461387     0.92400
C279        C  0.99461637  0.44697932  0.52598877     0.84500
C280        C  0.99794135  0.46967682  0.58656106     0.90800
O281        O  0.22274607  0.13805221  0.40838816    -0.73000
O282        O  0.22180784  0.11762240  0.45326376    -0.74000
O283        O  0.26824244  0.15122039  0.43239938    -0.62600
O284        O  0.17761552  0.09831211  0.42943660    -0.71000
O285        O  0.19937780  0.02978727  0.42567246    -0.70500
O286        O  0.28643723  0.08031596  0.42890857    -0.61800
O287        O  0.24198696  0.04730250  0.45062370    -0.74300
O288        O  0.24356813  0.06909649  0.40405565    -0.73100
Cu289      Cu  0.22175548  0.12869997  0.43092390     1.04600
Cu290      Cu  0.24336351  0.05412071  0.42714683     1.04300
C291        C  0.23411750  0.10852879  0.39902685     0.93200
C292        C  0.23200781  0.08037351  0.45921757     0.92400
C293        C  0.29178069  0.12283485  0.43132214     0.84500
C294        C  0.17454284  0.05468549  0.42740692     0.90800
O295        O  0.21534292  0.00080541  0.55223727    -0.73000
O296        O  0.30507467  0.05501770  0.55358852    -0.74000
O297        O  0.26304567  0.01328544  0.57518494    -0.62600
O298        O  0.25865651  0.03822236  0.53049329    -0.71000
O299        O  0.23841205  0.10803769  0.53439695    -0.70500
O300        O  0.24207398  0.08190204  0.58052420    -0.61800
O301        O  0.28368025  0.12324760  0.55845938    -0.74300
O302        O  0.19631789  0.07103018  0.55661476    -0.73100
Cu303      Cu  0.26128916  0.02443304  0.55272891     1.04600
Cu304      Cu  0.23946531  0.09852654  0.55768701     1.04300
C305        C  0.19160643  0.02834650  0.55409568     0.93200
C306        C  0.30829311  0.09836647  0.55616581     0.92400
C307        C  0.25334693  0.04285425  0.58493408     0.84500
C308        C  0.24799350  0.07621435  0.52522852     0.90800
O309        O  0.44120303  0.22008242  0.55765056    -0.73000
O310        O  0.53359994  0.26622421  0.55470964    -0.74000
O311        O  0.48619696  0.23589958  0.53377249    -0.62600
O312        O  0.48787450  0.25708312  0.57865059    -0.71000
O313        O  0.50577100  0.18616718  0.58324556    -0.70500
O314        O  0.50318562  0.16382423  0.53663795    -0.61800
O315        O  0.54908936  0.19418142  0.55827799    -0.74300
O316        O  0.46073663  0.15038200  0.56159181    -0.73100
Cu317      Cu  0.48649872  0.24733165  0.55611514     1.04600
Cu318      Cu  0.50523206  0.17118539  0.56011141     1.04300
C319        C  0.43674036  0.17658470  0.55975207     0.93200
C320        C  0.55613120  0.23626346  0.55593071     0.92400
C321        C  0.49435813  0.19750317  0.52793826     0.84500
C322        C  0.49759050  0.22632268  0.58806173     0.90800
O323        O  0.52779213  0.24138538  0.42853245    -0.73000
O324        O  0.43673308  0.20348727  0.42997245    -0.74000
O325        O  0.48213443  0.22992326  0.45255972    -0.62600
O326        O  0.48323518  0.21013259  0.40596586    -0.71000
O327        O  0.49804446  0.13760894  0.41037797    -0.70500
O328        O  0.49702317  0.15694656  0.45548969    -0.61800
O329        O  0.45025106  0.13061817  0.43361866    -0.74300
O330        O  0.54429283  0.16974704  0.43212663    -0.73100
Cu331      Cu  0.48197249  0.22374912  0.42910973     1.04600
Cu332      Cu  0.49794923  0.14620063  0.43301398     1.04300
C333        C  0.55070029  0.21268372  0.43014299     0.93200
C334        C  0.42852031  0.16169683  0.43218385     0.92400
C335        C  0.48941672  0.19564263  0.46130958     0.84500
C336        C  0.49094752  0.16996596  0.40101911     0.90800
O337        O  0.24368091  0.37133940  0.95417484    -0.73000
O338        O  0.24526706  0.39025333  0.90931758    -0.74000
O339        O  0.19821894  0.35668367  0.93016786    -0.62600
O340        O  0.29205541  0.39840799  0.93303830    -0.71000
O341        O  0.30597150  0.32566100  0.93010965    -0.70500
O342        O  0.21624175  0.28566266  0.92704057    -0.61800
O343        O  0.26217767  0.31868297  0.90521678    -0.74300
O344        O  0.25960629  0.29873664  0.95209474    -0.73100
Cu345      Cu  0.24420856  0.38167594  0.93179219     1.04600
Cu346      Cu  0.26148305  0.30464377  0.92850101     1.04300
C347        C  0.25152914  0.33331473  0.96047770     0.93200
C348        C  0.25409083  0.35871376  0.90011225     0.92400
C349        C  0.19285168  0.31352009  0.92793459     0.84500
C350        C  0.31401998  0.36735300  0.93197907     0.90800
O351        O  0.24647517  0.38306237  0.03513912    -0.73000
O352        O  0.24426986  0.36837465  0.08223726    -0.74000
O353        O  0.29081503  0.39748510  0.05999680    -0.62600
O354        O  0.19969963  0.35995037  0.05744236    -0.71000
O355        O  0.21316251  0.28666794  0.05459314    -0.70500
O356        O  0.30703130  0.32523549  0.05795838    -0.61800
O357        O  0.25853147  0.29538981  0.07863810    -0.74300
O358        O  0.26226591  0.31020527  0.03379370    -0.73100
Cu359      Cu  0.24489900  0.37991531  0.05881015     1.04600
Cu360      Cu  0.26085535  0.30197231  0.05619798     1.04300
C361        C  0.25416433  0.34752071  0.02711960     0.93200
C362        C  0.25060802  0.32801389  0.08760599     0.92400
C363        C  0.31359737  0.36826222  0.05938410     0.84500
C364        C  0.19156435  0.31814563  0.05533001     0.90800
O365        O  0.74056668  0.14616661  0.95574501    -0.73000
O366        O  0.73974033  0.14893328  0.91015690    -0.74000
O367        O  0.69483497  0.11982883  0.93291215    -0.62600
O368        O  0.78640064  0.16957595  0.93285056    -0.71000
O369        O  0.80335878  0.09700372  0.93184896    -0.70500
O370        O  0.71498250  0.04937808  0.93245427    -0.61800
O371        O  0.75792003  0.07696611  0.90868986    -0.74300
O372        O  0.75934930  0.07449452  0.95570719    -0.73100
Cu373      Cu  0.73965972  0.14864252  0.93294974     1.04600
Cu374      Cu  0.75951437  0.07195494  0.93219044     1.04300
C375        C  0.74994002  0.11045528  0.96302778     0.93200
C376        C  0.74885278  0.11460306  0.90218120     0.92400
C377        C  0.69070301  0.07594768  0.93264447     0.84500
C378        C  0.80925303  0.13999136  0.93214977     0.90800
O379        O  0.80872488  0.09072825  0.05762819    -0.73000
O380        O  0.71898927  0.03733905  0.05459452    -0.74000
O381        O  0.76312852  0.07736750  0.03416692    -0.62600
O382        O  0.76532609  0.04513799  0.07810215    -0.71000
O383        O  0.74458048  0.11238896  0.08468687    -0.70500
O384        O  0.74296718  0.14687526  0.03884957    -0.61800
O385        O  0.70003714  0.10685063  0.06011014    -0.74300
O386        O  0.78722702  0.15819263  0.06353226    -0.73100
Cu387      Cu  0.76491768  0.06038938  0.05599300     1.04600
Cu388      Cu  0.74315630  0.13359922  0.06207544     1.04300
C389        C  0.81181004  0.13381347  0.06069073     0.93200
C390        C  0.69528658  0.06474441  0.05673947     0.92400
C391        C  0.75212457  0.11565744  0.02933984     0.84500
C392        C  0.75423515  0.07179914  0.08844707     0.90800
O393        O  0.45670996  0.46077904  0.92993543    -0.73000
O394        O  0.54666098  0.50111566  0.92850325    -0.74000
O395        O  0.50293008  0.46430548  0.90615713    -0.62600
O396        O  0.50069621  0.49186086  0.95243287    -0.71000
O397        O  0.51789432  0.42032433  0.95665542    -0.70500
O398        O  0.51833663  0.39326889  0.91187329    -0.61800
O399        O  0.56452200  0.43032328  0.93306876    -0.74300
O400        O  0.47100496  0.38919790  0.93544106    -0.73100
Cu401      Cu  0.50134479  0.48200726  0.92904360     1.04600
Cu402      Cu  0.51860046  0.40576210  0.93439153     1.04300
C403        C  0.44899641  0.41957351  0.93315732     0.93200
C404        C  0.56986543  0.47341325  0.93075672     0.92400
C405        C  0.51002522  0.42323882  0.90182552     0.84500
C406        C  0.50890859  0.45931480  0.96173413     0.90800
O407        O  0.53978170  0.53467563  0.05367191    -0.73000
O408        O  0.44694396  0.49189663  0.05729556    -0.74000
O409        O  0.49409428  0.52947631  0.07762034    -0.62600
O410        O  0.49210316  0.50233679  0.03302341    -0.71000
O411        O  0.50909973  0.43057860  0.03705383    -0.70500
O412        O  0.51150580  0.45921906  0.08301734    -0.61800
O413        O  0.46507802  0.42147530  0.06206364    -0.74300
O414        O  0.55513697  0.46286806  0.05833268    -0.73100
Cu415      Cu  0.49252824  0.51701280  0.05525003     1.04600
Cu416      Cu  0.51061529  0.44097080  0.06031171     1.04300
C417        C  0.56216582  0.50477736  0.05554870     0.93200
C418        C  0.44162997  0.44908114  0.06010148     0.92400
C419        C  0.50404616  0.49998750  0.08745847     0.84500
C420        C  0.50064101  0.46323570  0.02786585     0.90800
O421        O  0.01124833  0.18518096  0.95211429    -0.73000
O422        O  0.01459942  0.15544634  0.90806222    -0.74000
O423        O  0.05869113  0.19613005  0.92928231    -0.62600
O424        O  0.96653860  0.14960502  0.93080909    -0.71000
O425        O  0.95034437  0.22122932  0.92591329    -0.70500
O426        O  0.03994079  0.26529821  0.92306746    -0.61800
O427        O  0.99542078  0.22405238  0.90167108    -0.74300
O428        O  0.99506932  0.25665515  0.94731629    -0.73100
Cu429      Cu  0.01346770  0.16919296  0.93021725     1.04600
Cu430      Cu  0.99468739  0.24433993  0.92422275     1.04300
C431        C  0.00332843  0.22487659  0.95690052     0.93200
C432        C  0.00428350  0.18331229  0.89780538     0.92400
C433        C  0.06342962  0.23907494  0.92639270     0.84500
C434        C  0.94402421  0.17915000  0.92872288     0.90800
O435        O  0.00487357  0.22546160  0.07783308    -0.73000
O436        O  0.00351270  0.21038063  0.03144141    -0.74000
O437        O  0.04902053  0.23868085  0.05350160    -0.62600
O438        O  0.96021742  0.19243259  0.05573731    -0.71000
O439        O  0.94046599  0.26310218  0.05317603    -0.70500
O440        O  0.03217669  0.31077574  0.05087940    -0.61800
O441        O  0.98522986  0.28188036  0.02928006    -0.74300
O442        O  0.98651995  0.29624351  0.07457622    -0.73100
Cu443      Cu  0.00495576  0.21424813  0.05472516     1.04600
Cu444      Cu  0.98538482  0.29049859  0.05189174     1.04300
C445        C  0.99616851  0.26416093  0.08355048     0.93200
C446        C  0.99428115  0.24448731  0.02304881     0.92400
C447        C  0.05512460  0.28143844  0.05192986     0.84500
C448        C  0.93632664  0.21944848  0.05462988     0.90800
C449        C  0.97842808  0.25999065  0.97984133    -0.05800
C450        C  0.00298230  0.23266289  0.97373443     0.00100
C451        C  0.02518953  0.21071166  0.98385381    -0.08500
C452        C  0.02087633  0.21529546  0.99983145    -0.05800
C453        C  0.99584668  0.24153628  0.00601069     0.00100
C454        C  0.97432048  0.26502752  0.99589267    -0.08400
C455        C  0.94660870  0.29422153  0.00176977     0.62000
H456        H  0.96189945  0.27647469  0.97188032     0.12700
H457        H  0.03734413  0.19829035  0.00770383     0.12700
C458        C  0.05351489  0.18249405  0.97807436     0.62300
F459        F  0.92651290  0.30821774  0.98987257    -0.22900
F460        F  0.95816472  0.33350169  0.00885426    -0.20200
F461        F  0.92853928  0.26910613  0.01221015    -0.19900
F462        F  0.06885863  0.20548886  0.96615246    -0.20000
F463        F  0.04306787  0.13997589  0.97293833    -0.20300
F464        F  0.07586813  0.17485751  0.98966200    -0.23000
C465        C  0.47727260  0.45678697  0.98566611    -0.05800
C466        C  0.50697755  0.46460645  0.97860790     0.00100
C467        C  0.53481294  0.46925234  0.98779800    -0.08500
C468        C  0.53196877  0.46575418  0.00396822    -0.05800
C469        C  0.50228491  0.45807967  0.01101459     0.00100
C470        C  0.47438441  0.45393483  0.00186841    -0.08400
C471        C  0.44191977  0.44625530  0.00928688     0.62000
H472        H  0.45644058  0.45222889  0.97835045     0.12700
H473        H  0.55279149  0.47024704  0.01129590     0.12700
C474        C  0.56710869  0.47906941  0.98050793     0.62300
F475        F  0.41819803  0.43969612  0.99831662    -0.22900
F476        F  0.43368045  0.48415181  0.01811887    -0.20200
F477        F  0.44307508  0.40757457  0.01870999    -0.19900
F478        F  0.56510156  0.51897075  0.97173665    -0.20000
F479        F  0.57608422  0.44282643  0.97109024    -0.20300
F480        F  0.59075538  0.48511504  0.99155803    -0.23000
C481        C  0.61676385  0.00088794  0.06208071    -0.05800
C482        C  0.59675981  0.51716156  0.05500512     0.00100
C483        C  0.60944406  0.55271750  0.04551984    -0.08500
C484        C  0.64278825  0.55976993  0.04549645    -0.05800
C485        C  0.66166508  0.04945794  0.05526472     0.00100
C486        C  0.64990381  0.00911372  0.06244842    -0.08400
C487        C  0.67197861  0.97572360  0.07091451     0.62000
H488        H  0.60760315  0.97026676  0.06772218     0.12700
H489        H  0.65289840  0.58722343  0.03852190     0.12700
C490        C  0.58823436  0.58318224  0.03547165     0.62300
F491        F  0.65521174  0.94070401  0.07820146    -0.22900
F492        F  0.68926806  0.99896394  0.08210150    -0.20200
F493        F  0.69283281  0.95565572  0.06048692    -0.19900
F494        F  0.60593708  0.61256964  0.02616927    -0.20000
F495        F  0.56882867  0.61004429  0.04477556    -0.20300
F496        F  0.56951079  0.55617936  0.02590774    -0.23000
C497        C  0.86533361  0.13965804  0.04880734    -0.05800
C498        C  0.84366392  0.15656269  0.05982192     0.00100
C499        C  0.85211451  0.19619925  0.06866099    -0.08500
C500        C  0.88227665  0.21665604  0.06623443    -0.05800
C501        C  0.90393482  0.19911222  0.05538371     0.00100
C502        C  0.89520449  0.16048310  0.04627955    -0.08400
C503        C  0.91687293  0.14184168  0.03361819     0.62000
H504        H  0.85843791  0.11016079  0.04192076     0.12700
H505        H  0.88948092  0.24625924  0.07300055     0.12700
C506        C  0.82997512  0.21678159  0.08078734     0.62300
F507        F  0.90098610  0.11104183  0.02412074    -0.22900
F508        F  0.94268928  0.11909855  0.04015248    -0.20200
F509        F  0.92774507  0.17766268  0.02441807    -0.19900
F510        F  0.81906651  0.18253246  0.09064450    -0.20000
F511        F  0.80428179  0.23811719  0.07360969    -0.20300
F512        F  0.84532460  0.24957277  0.08972580    -0.23000
C513        C  0.86079771  0.13761334  0.91848094    -0.05800
C514        C  0.84316330  0.15384955  0.93120403     0.00100
C515        C  0.85914332  0.17631368  0.94347951    -0.08500
C516        C  0.89245323  0.18275371  0.94240965    -0.05800
C517        C  0.91004359  0.16616333  0.92974707     0.00100
C518        C  0.89412130  0.14358945  0.91749408    -0.08400
C519        C  0.91225027  0.12664713  0.90338751     0.62000
H520        H  0.84815267  0.11972704  0.90933896     0.12700
H521        H  0.90515515  0.20073842  0.95150948     0.12700
C522        C  0.84131169  0.19142779  0.95787967     0.62300
F523        F  0.89213042  0.10634946  0.89265059    -0.22900
F524        F  0.93482813  0.09430430  0.90787721    -0.20200
F525        F  0.92746485  0.16329736  0.89624339    -0.19900
F526        F  0.82676694  0.15359902  0.96464494    -0.20000
F527        F  0.81828148  0.22375713  0.95397297    -0.20300
F528        F  0.86156768  0.21094035  0.96871814    -0.23000
C529        C  0.65776031  0.49982403  0.92279899    -0.05800
C530        C  0.65826172  0.05390421  0.93221388     0.00100
C531        C  0.62942424  0.07638165  0.93652421    -0.08500
C532        C  0.60601441  0.53619134  0.93872584    -0.05800
C533        C  0.60252313  0.49359197  0.93114216     0.00100
C534        C  0.62892361  0.47471572  0.92314832    -0.08400
C535        C  0.62656768  0.42888342  0.91477670     0.62000
H536        H  0.67798179  0.48581473  0.91654406     0.12700
H537        H  0.57835203  0.06859017  0.93877803     0.12700
C538        C  0.62876527  0.12593705  0.94219533     0.62300
F539        F  0.65424700  0.41867264  0.90667338    -0.22900
F540        F  0.60146541  0.43006424  0.90432502    -0.20200
F541        F  0.62151845  0.39389529  0.92542179    -0.19900
F542        F  0.63796576  0.15532007  0.93036496    -0.20000
F543        F  0.64922923  0.13077406  0.95468650    -0.20300
F544        F  0.59851338  0.13928402  0.94695885    -0.23000
C545        C  0.73293121  0.08345643  0.00509863    -0.05800
C546        C  0.74845619  0.12021499  0.01249678     0.00100
C547        C  0.76381094  0.15459461  0.00363126    -0.08500
C548        C  0.76362570  0.15023035  0.98739603    -0.05800
C549        C  0.74958392  0.11192850  0.98006365     0.00100
C550        C  0.73320291  0.07858063  0.98897494    -0.08400
C551        C  0.71543853  0.03871292  0.98154035     0.62000
H552        H  0.72127501  0.05758163  0.01219839     0.12700
H553        H  0.77505806  0.17623836  0.98029293     0.12700
C554        C  0.78129420  0.19424571  0.01129431     0.62300
F555        F  0.69866169  0.01296703  0.99234602    -0.22900
F556        F  0.73690841  0.00963215  0.97428373    -0.20200
F557        F  0.69375510  0.05550347  0.97078327    -0.19900
F558        F  0.80526582  0.17718271  0.02079922    -0.20000
F559        F  0.76006175  0.21977254  0.02006863    -0.20300
F560        F  0.79513785  0.22348114  0.00050980    -0.23000
C561        C  0.13497952  0.33892360  0.06076886    -0.05800
C562        C  0.15666681  0.30787193  0.05381797     0.00100
C563        C  0.14431003  0.27105954  0.04484677    -0.08500
C564        C  0.11090514  0.26501312  0.04413834    -0.05800
C565        C  0.08938343  0.29520414  0.05150543     0.00100
C566        C  0.10155482  0.33377540  0.05957141    -0.08400
C567        C  0.07955046  0.36896083  0.06707939     0.62000
H568        H  0.14450177  0.36769489  0.06729553     0.12700
H569        H  0.10116150  0.23596222  0.03780692     0.12700
C570        C  0.16588862  0.23895418  0.03568792     0.62300
F571        F  0.09644257  0.40257001  0.07494801    -0.22900
F572        F  0.05948711  0.34734700  0.07755748    -0.20200
F573        F  0.06145459  0.39072349  0.05577776    -0.19900
F574        F  0.18381537  0.21200538  0.04571142    -0.20000
F575        F  0.18604657  0.26451314  0.02630294    -0.20300
F576        F  0.14853893  0.20970498  0.02623767    -0.23000
C577        C  0.35178136  0.43058770  0.06663063    -0.05800
C578        C  0.34728649  0.38613517  0.06031995     0.00100
C579        C  0.37443461  0.36229530  0.05447926    -0.08500
C580        C  0.40441702  0.38458593  0.05466349    -0.05800
C581        C  0.40857534  0.42949751  0.06048716     0.00100
C582        C  0.38186283  0.45260360  0.06692691    -0.08400
C583        C  0.38509216  0.49958965  0.07450449     0.62000
H584        H  0.33121839  0.44848903  0.07136915     0.12700
H585        H  0.42516791  0.36699082  0.04997390     0.12700
C586        C  0.37209438  0.31402173  0.04778572     0.62300
F587        F  0.35707925  0.51312528  0.08174995    -0.22900
F588        F  0.39244952  0.53249545  0.06344718    -0.20200
F589        F  0.40902545  0.49816614  0.08558512    -0.19900
F590        F  0.35071654  0.31384984  0.03554318    -0.20000
F591        F  0.36201855  0.28354631  0.05913219    -0.20300
F592        F  0.40125728  0.29829538  0.04231443    -0.23000
C593        C  0.35731015  0.42512689  0.93578138    -0.05800
C594        C  0.34897910  0.37911267  0.93281818     0.00100
C595        C  0.37418211  0.34606611  0.93066752    -0.08500
C596        C  0.40616417  0.36107721  0.93126555    -0.05800
C597        C  0.41433483  0.40719099  0.93378294     0.00100
C598        C  0.38937257  0.43997863  0.93636070    -0.08400
C599        C  0.39593590  0.49057081  0.93981625     0.62000
H600        H  0.33826326  0.44996153  0.93748199     0.12700
H601        H  0.42539413  0.33665745  0.92937762     0.12700
C602        C  0.36829883  0.29503109  0.92754550     0.62300
F603        F  0.36855073  0.51390105  0.94431284    -0.22900
F604        F  0.40757645  0.51230265  0.92669622    -0.20200
F605        F  0.41788342  0.49420037  0.95175774    -0.19900
F606        F  0.35089670  0.28996761  0.91402821    -0.20000
F607        F  0.35205676  0.27539578  0.93985482    -0.20300
F608        F  0.39648704  0.27041877  0.92574151    -0.23000
C609        C  0.12069594  0.23593996  0.91910125    -0.05800
C610        C  0.09617616  0.25912957  0.92688163     0.00100
C611        C  0.10324589  0.30105715  0.93468799    -0.08500
C612        C  0.13489948  0.31789849  0.93449934    -0.05800
C613        C  0.15961297  0.29465826  0.92675159     0.00100
C614        C  0.15219752  0.25318772  0.91859589    -0.08400
C615        C  0.17681781  0.22731238  0.90895632     0.62000
H616        H  0.11477608  0.20430386  0.91319153     0.12700
H617        H  0.14067081  0.34923211  0.94060395     0.12700
C618        C  0.07782466  0.32756681  0.94358590     0.62300
F619        F  0.16280037  0.19386759  0.89978396    -0.22900
F620        F  0.19864024  0.20544393  0.91855691    -0.20200
F621        F  0.19255705  0.25770296  0.89920937    -0.19900
F622        F  0.06239356  0.29839906  0.95383206    -0.20000
F623        F  0.05579870  0.34629096  0.93338260    -0.20300
F624        F  0.09080743  0.36342225  0.95205889    -0.23000
C625        C  0.22810320  0.35942277  0.98509033    -0.05800
C626        C  0.25124478  0.33193281  0.97763315     0.00100
C627        C  0.27541371  0.31028926  0.98655604    -0.08500
C628        C  0.27629498  0.31878254  0.00256484    -0.05800
C629        C  0.25350051  0.34696917  0.00998008     0.00100
C630        C  0.22849920  0.36696052  0.00115583    -0.08400
C631        C  0.20179952  0.39479406  0.00858748     0.62000
H632        H  0.20958641  0.37542062  0.97810941     0.12700
H633        H  0.29483623  0.30283675  0.00954281     0.12700
C634        C  0.30039403  0.27897673  0.97932070     0.62300
F635        F  0.17877547  0.40808725  0.99791185    -0.22900
F636        F  0.21421572  0.43431014  0.01516343    -0.20200
F637        F  0.18687005  0.36861332  0.01988062    -0.19900
F638        F  0.31723664  0.30286878  0.96810304    -0.20000
F639        F  0.28552600  0.24128371  0.97271074    -0.20300
F640        F  0.32213249  0.26261017  0.99015153    -0.23000
C641        C  0.50683547  0.23171915  0.50262682    -0.05800
C642        C  0.49387031  0.19430275  0.51090877     0.00100
C643        C  0.47760881  0.15901357  0.50289664    -0.08500
C644        C  0.47590176  0.16173939  0.48665629    -0.05800
C645        C  0.48916385  0.19896844  0.47835737     0.00100
C646        C  0.50469957  0.23485712  0.48642533    -0.08400
C647        C  0.51962934  0.27556623  0.47801357     0.62000
H648        H  0.51862360  0.25888113  0.50906010     0.12700
H649        H  0.46411263  0.13455143  0.48023334     0.12700
C650        C  0.46128818  0.11969833  0.51144072     0.62300
F651        F  0.53538547  0.30485567  0.48807814    -0.22900
F652        F  0.49604207  0.30080373  0.47056714    -0.20200
F653        F  0.54158990  0.25996438  0.46724749    -0.19900
F654        F  0.44001571  0.13721392  0.52220318    -0.20000
F655        F  0.48395425  0.09292356  0.51894408    -0.20300
F656        F  0.44434839  0.09150620  0.50147039    -0.23000
C657        C  0.36624472  0.09138795  0.56142377    -0.05800
C658        C  0.34070926  0.11972664  0.55692011     0.00100
C659        C  0.34679919  0.16698196  0.55343446    -0.08500
C660        C  0.37822789  0.18393147  0.55493352    -0.05800
C661        C  0.40394078  0.15562615  0.55945299     0.00100
C662        C  0.39776722  0.10792226  0.56270139    -0.08400
C663        C  0.42372117  0.07354312  0.56742704     0.62000
H664        H  0.36116064  0.05564324  0.56402683     0.12700
H665        H  0.38297519  0.21979966  0.55236943     0.12700
C666        C  0.32073665  0.19965922  0.54775140     0.62300
F667        F  0.41142648  0.03033476  0.57081310    -0.22900
F668        F  0.43931984  0.08887389  0.58056781    -0.20200
F669        F  0.44530991  0.06801028  0.55543215    -0.19900
F670        F  0.29950308  0.20874898  0.55962997    -0.20000
F671        F  0.30462580  0.18020828  0.53539535    -0.20300
F672        F  0.33306892  0.24144915  0.54276230    -0.23000
C673        C  0.34726739  0.10293457  0.43864862    -0.05800
C674        C  0.32594681  0.13677177  0.43297425     0.00100
C675        C  0.33837456  0.17950089  0.42785798    -0.08500
C676        C  0.37183826  0.18572882  0.42792304    -0.05800
C677        C  0.39341991  0.15098303  0.43291285     0.00100
C678        C  0.38067912  0.10893069  0.43870195    -0.08400
C679        C  0.40169989  0.07015298  0.44492000     0.62000
H680        H  0.33740289  0.07076545  0.44284037     0.12700
H681        H  0.38138990  0.21805169  0.42372914     0.12700
C682        C  0.31674821  0.21785919  0.42189813     0.62300
F683        F  0.38387800  0.03405940  0.45092334    -0.22900
F684        F  0.42102534  0.08652408  0.45668699    -0.20200
F685        F  0.42037529  0.05259398  0.43310567    -0.19900
F686        F  0.29639361  0.23206729  0.43357230    -0.20000
F687        F  0.29898770  0.20218305  0.40946437    -0.20300
F688        F  0.33395802  0.25597360  0.41701247    -0.23000
C689        C  0.26440199  0.06572032  0.48234770    -0.05800
C690        C  0.23458205  0.07806735  0.47619409     0.00100
C691        C  0.20984181  0.09372423  0.48618153    -0.08500
C692        C  0.21566688  0.09443571  0.50220819    -0.05800
C693        C  0.24533497  0.08124738  0.50833714     0.00100
C694        C  0.27052881  0.06804433  0.49829462    -0.08400
C695        C  0.30410786  0.05827066  0.50426187     0.62000
H696        H  0.28327885  0.05554008  0.47446967     0.12700
H697        H  0.19686624  0.10447612  0.51014242     0.12700
C698        C  0.17725994  0.10877296  0.48009865     0.62300
F699        F  0.32622132  0.05718867  0.49233458    -0.22900
F700        F  0.30498989  0.01604831  0.51173845    -0.20200
F701        F  0.31332060  0.09251600  0.51444932    -0.19900
F702        F  0.16507890  0.07546693  0.47030957    -0.20000
F703        F  0.17996388  0.15008448  0.47215611    -0.20300
F704        F  0.15549039  0.11532599  0.49197450    -0.23000
C705        C  0.11314534  0.46405309  0.55897144    -0.05800
C706        C  0.09054072  0.49722260  0.55391719     0.00100
C707        C  0.10330433  0.03277582  0.54472285    -0.08500
C708        C  0.13647940  0.04104326  0.54489653    -0.05800
C709        C  0.15796777  0.01264535  0.55310989     0.00100
C710        C  0.14628672  0.47229934  0.55885712    -0.08400
C711        C  0.16910405  0.43488080  0.56446053     0.62000
H712        H  0.10465533  0.43113324  0.56323834     0.12700
H713        H  0.14606675  0.07034983  0.53861034     0.12700
C714        C  0.08181838  0.06335461  0.53485606     0.62300
F715        F  0.15305887  0.39606389  0.56966341    -0.22900
F716        F  0.18746450  0.45125311  0.57656670    -0.20200
F717        F  0.18882724  0.42148692  0.55243290    -0.19900
F718        F  0.06165420  0.08871141  0.54424702    -0.20000
F719        F  0.06393263  0.03641488  0.52490548    -0.20300
F720        F  0.09924282  0.09411151  0.52593076    -0.23000
C721        C  0.14271211  0.98297556  0.43074140    -0.05800
C722        C  0.14277885  0.03083164  0.42751935     0.00100
C723        C  0.11326094  0.05297757  0.42433124    -0.08500
C724        C  0.08511760  0.02641260  0.42451764    -0.05800
C725        C  0.08488708  0.97858070  0.42789927     0.00100
C726        C  0.10720185  0.47942703  0.44045842    -0.08400
C727        C  0.10108152  0.44451752  0.45327642     0.62000
H728        H  0.16527877  0.96622296  0.43328037     0.12700
H729        H  0.06268654  0.04362263  0.42209115     0.12700
C730        C  0.11104387  0.10419072  0.42059190     0.62300
F731        F  0.12484079  0.44529843  0.46445880    -0.22900
F732        F  0.10003561  0.40060681  0.44712083    -0.20200
F733        F  0.07234264  0.45406110  0.46049947    -0.19900
F734        F  0.13081713  0.11466032  0.40823734    -0.20000
F735        F  0.11998291  0.12961358  0.43339950    -0.20300
F736        F  0.08027144  0.11749123  0.41658784    -0.23000
C737        C  0.00168605  0.48525110  0.50060182    -0.05800
C738        C  0.99399758  0.44467224  0.50883894     0.00100
C739        C  0.98349541  0.40542392  0.50061625    -0.08500
C740        C  0.98228720  0.40775711  0.48438235    -0.05800
C741        C  0.99024175  0.44809970  0.47611898     0.00100
C742        C  0.99971733  0.48793485  0.48434398    -0.08400
C743        C  0.00804493  0.53280681  0.47614225     0.62000
H744        H  0.00921807  0.51523671  0.50708755     0.12700
H745        H  0.97509322  0.37756349  0.47793048     0.12700
C746        C  0.97245025  0.36187563  0.50883368     0.62300
F747        F  0.01891648  0.56596584  0.48636770    -0.22900
F748        F  0.98115857  0.55016418  0.46880058    -0.20200
F749        F  0.03180942  0.52535761  0.46531336    -0.19900
F750        F  0.95372032  0.86115137  0.52054591    -0.20000
F751        F  0.99800400  0.34116626  0.51631425    -0.20300
F752        F  0.96626057  0.81779121  0.50004990    -0.23000
C753        C  0.85374617  0.34479586  0.43992436    -0.05800
C754        C  0.83312753  0.36679998  0.42934510     0.00100
C755        C  0.84612137  0.39687228  0.41806984    -0.08500
C756        C  0.87921983  0.40586322  0.41834874    -0.05800
C757        C  0.89986953  0.38479403  0.42917916     0.00100
C758        C  0.88698639  0.35321072  0.44009437    -0.08400
C759        C  0.90787221  0.32962887  0.45215908     0.62000
H760        H  0.84342429  0.32074131  0.44817038     0.12700
H761        H  0.88939145  0.42953329  0.40993310     0.12700
C762        C  0.82534174  0.41771331  0.40540760     0.62300
F763        F  0.89009384  0.30290077  0.46229734    -0.22900
F764        F  0.92391518  0.36247382  0.46073143    -0.20200
F765        F  0.92977238  0.30106618  0.44495720    -0.19900
F766        F  0.80266352  0.44657729  0.41186001    -0.20000
F767        F  0.81012659  0.38289861  0.39735563    -0.20300
F768        F  0.84311890  0.44319276  0.39491515    -0.23000
C769        C  0.58844062  0.27564920  0.42304480    -0.05800
C770        C  0.58427969  0.23123094  0.42954319     0.00100
C771        C  0.61154582  0.20825120  0.43573880    -0.08500
C772        C  0.64148394  0.23081799  0.43526173    -0.05800
C773        C  0.64531169  0.27548556  0.42903469     0.00100
C774        C  0.61826917  0.29824670  0.42270823    -0.08400
C775        C  0.62080061  0.34569402  0.41527038     0.62000
H776        H  0.56781987  0.29311714  0.41817591     0.12700
H777        H  0.66241474  0.21368098  0.43996514     0.12700
C778        C  0.60937804  0.16066975  0.44309804     0.62300
F779        F  0.59241458  0.35916589  0.40829421    -0.22900
F780        F  0.64432621  0.34537859  0.40400977    -0.20200
F781        F  0.62824804  0.37806460  0.42641655    -0.19900
F782        F  0.59987181  0.12885217  0.43213239    -0.20000
F783        F  0.58762221  0.16141889  0.45516062    -0.20300
F784        F  0.63849245  0.14607103  0.44903805    -0.23000
C785        C  0.63642528  0.29839781  0.55040226    -0.05800
C786        C  0.65826094  0.26272456  0.55402926     0.00100
C787        C  0.64630172  0.21835075  0.55760960    -0.08500
C788        C  0.61299065  0.21207394  0.55800279    -0.05800
C789        C  0.59094753  0.24805046  0.55484905     0.00100
C790        C  0.60303330  0.29209104  0.55069570    -0.08400
C791        C  0.58133097  0.33248938  0.54657476     0.62000
H792        H  0.64584163  0.33203742  0.54741044     0.12700
H793        H  0.60397907  0.17824547  0.56097905     0.12700
C794        C  0.66819383  0.17778301  0.56132889     0.62300
F795        F  0.59849787  0.37129409  0.54229156    -0.22900
F796        F  0.56278474  0.34415200  0.55923296    -0.20200
F797        F  0.56185531  0.32078456  0.53424114    -0.19900
F798        F  0.68783977  0.18861740  0.57369050    -0.20000
F799        F  0.68660989  0.16732084  0.54850805    -0.20300
F800        F  0.65123764  0.13849719  0.56529187    -0.23000
C801        C  0.84850074  0.39778302  0.56468352    -0.05800
C802        C  0.84520492  0.35449141  0.55738974     0.00100
C803        C  0.87238114  0.33448855  0.55019078    -0.08500
C804        C  0.90155933  0.35864701  0.55063125    -0.05800
C805        C  0.90457397  0.40221973  0.55765185     0.00100
C806        C  0.87758967  0.42217220  0.56488376    -0.08400
C807        C  0.87944433  0.46839547  0.57306537     0.62000
H808        H  0.82780154  0.41287378  0.57024537     0.12700
H809        H  0.92253687  0.34354282  0.54532617     0.12700
C810        C  0.87087102  0.28854748  0.54178328     0.62300
F811        F  0.85136864  0.47883725  0.58080574    -0.22900
F812        F  0.88496400  0.50302900  0.56235066    -0.20200
F813        F  0.90395219  0.46771830  0.58383284    -0.19900
F814        F  0.84763689  0.29032751  0.53036625    -0.20000
F815        F  0.86385345  0.25365482  0.55220019    -0.20300
F816        F  0.89961887  0.27754042  0.53473127    -0.23000
C817        C  0.76843604  0.28767420  0.50021581    -0.05800
C818        C  0.74815139  0.31705937  0.50873767     0.00100
C819        C  0.72391256  0.34214031  0.50090463    -0.08500
C820        C  0.72177762  0.33796823  0.48474360    -0.05800
C821        C  0.74234923  0.30903404  0.47621928     0.00100
C822        C  0.76557474  0.28232283  0.48412860    -0.08400
C823        C  0.78740115  0.24857948  0.47580272     0.62000
H824        H  0.78657060  0.26814223  0.50636742     0.12700
H825        H  0.70377799  0.35765792  0.47855138     0.12700
C826        C  0.69978177  0.37205907  0.50941322     0.62300
F827        F  0.80857049  0.22695366  0.48583322    -0.22900
F828        F  0.80513321  0.27155547  0.46471036    -0.20200
F829        F  0.76920734  0.21468560  0.46882944    -0.19900
F830        F  0.71528415  0.40845986  0.51646838    -0.20000
F831        F  0.68402501  0.34598115  0.52046475    -0.20300
F832        F  0.67691782  0.39036601  0.49951143    -0.23000
C833        C  0.00064954  0.11735171  0.87982671    -0.05800
C834        C  0.00186020  0.16573798  0.88167767     0.00100
C835        C  0.00114477  0.19428723  0.86836489    -0.08500
C836        C  0.00131467  0.17310936  0.85377051    -0.05800
C837        C  0.00178692  0.12468475  0.85189535     0.00100
C838        C  0.00037380  0.09616532  0.86520998    -0.08400
C839        C  0.99886252  0.04387923  0.86421112     0.62000
H840        H  0.99983495  0.09575666  0.89007348     0.12700
H841        H  0.00099910  0.19484281  0.84355228     0.12700
C842        C  0.00051138  0.24665056  0.86933482     0.62300
F843        F  0.99910684  0.02319751  0.87869662    -0.22900
F844        F  0.02497080  0.02739008  0.85608597    -0.20200
F845        F  0.97091150  0.03090797  0.85684499    -0.19900
F846        F  0.02657243  0.26205804  0.87772059    -0.20000
F847        F  0.97250320  0.26085541  0.87640063    -0.20300
F848        F  0.00169435  0.26728526  0.85485495    -0.23000
C849        C  0.01153479  0.98081589  0.62964760    -0.05800
C850        C  0.00205559  0.02628311  0.63295718     0.00100
C851        C  0.99139545  0.05525091  0.62084437    -0.08500
C852        C  0.99013628  0.03705719  0.60579194    -0.05800
C853        C  0.00054141  0.48145280  0.60316848     0.00100
C854        C  0.98603369  0.45518059  0.61497637    -0.08400
C855        C  0.97104640  0.40854960  0.61168252     0.62000
H856        H  0.01891513  0.95886992  0.63916486     0.12700
H857        H  0.02606508  0.54321178  0.59755797     0.12700
C858        C  0.98028327  0.10440218  0.62381216     0.62300
F859        F  0.95677120  0.38971215  0.62470955    -0.22900
F860        F  0.99438522  0.37815948  0.60671102    -0.20200
F861        F  0.94788426  0.41301312  0.60033453    -0.19900
F862        F  0.00580144  0.13070073  0.62883026    -0.20000
F863        F  0.95655152  0.10457106  0.63497166    -0.20300
F864        F  0.96797439  0.12504867  0.61059467    -0.23000
C865        C  0.02394049  0.09078423  0.75097707    -0.05800
C866        C  0.00118532  0.06490893  0.75926364     0.00100
C867        C  0.97679233  0.04147475  0.75114846    -0.08500
C868        C  0.97647049  0.04445061  0.73489504    -0.05800
C869        C  0.99911131  0.07079191  0.72663523     0.00100
C870        C  0.02309116  0.09492191  0.73482360    -0.08400
C871        C  0.04799116  0.12440218  0.72670506     0.62000
H872        H  0.04234774  0.10876080  0.75739103     0.12700
H873        H  0.95825303  0.02618953  0.72844482     0.12700
C874        C  0.95067968  0.01492653  0.75950561     0.62300
F875        F  0.07028703  0.14214875  0.73693386    -0.22900
F876        F  0.03316225  0.16117807  0.71936629    -0.20200
F877        F  0.06425042  0.09816419  0.71596128    -0.19900
F878        F  0.93509315  0.04375264  0.76976622    -0.20000
F879        F  0.96393489  0.97812561  0.76750130    -0.20300
F880        F  0.92808173  0.99761851  0.74934919    -0.23000
C881        C  0.72377182  0.12250920  0.86027800    -0.05800
C882        C  0.74776377  0.15167508  0.85429991     0.00100
C883        C  0.77375102  0.16451516  0.86394093    -0.08500
C884        C  0.77410983  0.14892232  0.87937962    -0.05800
C885        C  0.74977389  0.12087599  0.88533064     0.00100
C886        C  0.72418389  0.10722124  0.87575797    -0.08400
C887        C  0.69713376  0.07785973  0.88210566     0.62000
H888        H  0.70425213  0.11235587  0.85274627     0.12700
H889        H  0.79308041  0.15964253  0.88715611     0.12700
C890        C  0.80125712  0.19377926  0.85801535     0.62300
F891        F  0.67497960  0.06694526  0.87077431    -0.22900
F892        F  0.68145681  0.10146080  0.89375653    -0.20200
F893        F  0.70936511  0.03711837  0.88807500    -0.19900
F894        F  0.79034296  0.23767009  0.85452219    -0.20000
F895        F  0.81427144  0.17391627  0.84490456    -0.20300
F896        F  0.82543253  0.19780745  0.86889989    -0.23000
C897        C  0.86336136  0.17266832  0.81152599    -0.05800
C898        C  0.84179678  0.13956451  0.80561538     0.00100
C899        C  0.85433200  0.09951778  0.79844094    -0.08500
C900        C  0.88775031  0.09323817  0.79821496    -0.05800
C901        C  0.90909089  0.12615447  0.80426493     0.00100
C902        C  0.89674520  0.16722348  0.81071027    -0.08400
C903        C  0.91840842  0.20482788  0.81699751     0.62000
H904        H  0.85387149  0.20342834  0.81685476     0.12700
H905        H  0.89757716  0.06209942  0.79329490     0.12700
C906        C  0.83304678  0.06396311  0.79071539     0.62300
F907        F  0.90119406  0.24089707  0.82339690    -0.22900
F908        F  0.93679172  0.22276186  0.80511445    -0.20200
F909        F  0.93816382  0.18687918  0.82839305    -0.19900
F910        F  0.81381860  0.08529290  0.77976099    -0.20000
F911        F  0.81419710  0.04241110  0.80170936    -0.20300
F912        F  0.85066938  0.03023314  0.78323445    -0.23000
C913        C  0.75102683  0.28517941  0.63030933    -0.05800
C914        C  0.75493393  0.23786183  0.63366595     0.00100
C915        C  0.75938876  0.20652031  0.62135500    -0.08500
C916        C  0.75839666  0.22365255  0.60612100    -0.05800
C917        C  0.75446259  0.27108991  0.60268296     0.00100
C918        C  0.75137921  0.30266639  0.61509785    -0.08400
C919        C  0.74928922  0.35453576  0.61258545     0.62000
H920        H  0.74775901  0.30884645  0.63984737     0.12700
H921        H  0.76083907  0.19942812  0.59669642     0.12700
C922        C  0.76630310  0.15560859  0.62413106     0.62300
F923        F  0.74954557  0.37852808  0.62642186    -0.22900
F924        F  0.72119151  0.36552837  0.60493554    -0.20200
F925        F  0.77525647  0.36935080  0.60398512    -0.19900
F926        F  0.73961040  0.13434145  0.63030579    -0.20000
F927        F  0.79183874  0.15077262  0.63423199    -0.20300
F928        F  0.77418296  0.13290871  0.61057229    -0.23000
C929        C  0.85118042  0.10941442  0.67109211    -0.05800
C930        C  0.84765232  0.15313983  0.67809091     0.00100
C931        C  0.87498851  0.17432821  0.68475989    -0.08500
C932        C  0.90427339  0.15035064  0.68450010    -0.05800
C933        C  0.90754857  0.10648269  0.67777456     0.00100
C934        C  0.88066710  0.08574558  0.67073460    -0.08400
C935        C  0.88314790  0.03963822  0.66251116     0.62000
H936        H  0.83045251  0.09357229  0.66582581     0.12700
H937        H  0.92520245  0.16584877  0.68971070     0.12700
C938        C  0.87371986  0.22158979  0.69232763     0.62300
F939        F  0.85500023  0.02828698  0.65498042    -0.22900
F940        F  0.88976353  0.00511478  0.67314035    -0.20200
F941        F  0.90726523  0.04130799  0.65155833    -0.19900
F942        F  0.85148036  0.22146272  0.70418203    -0.20000
F943        F  0.86558145  0.25463951  0.68140324    -0.20300
F944        F  0.90290238  0.23412354  0.69862107    -0.23000
C945        C  0.74064136  0.22810053  0.73520072    -0.05800
C946        C  0.75171159  0.18872016  0.72734629     0.00100
C947        C  0.76153336  0.14949528  0.73590670    -0.08500
C948        C  0.76053662  0.15169899  0.75216659    -0.05800
C949        C  0.74974119  0.19132145  0.76001630     0.00100
C950        C  0.73903366  0.22997627  0.75142159    -0.08400
C951        C  0.72470040  0.27213600  0.75920469     0.62000
H952        H  0.73294376  0.25765093  0.72843099     0.12700
H953        H  0.76817676  0.12214680  0.75894702     0.12700
C954        C  0.77350134  0.10599171  0.72802831     0.62300
F955        F  0.71256264  0.30337750  0.74852896    -0.22900
F956        F  0.74784369  0.29445614  0.76779911    -0.20200
F957        F  0.69989415  0.25878676  0.76881252    -0.19900
F958        F  0.79844858  0.11659803  0.71812559    -0.20000
F959        F  0.74887013  0.08615674  0.71970162    -0.20300
F960        F  0.78447713  0.07361060  0.73861846    -0.23000
C961        C  0.47785393  0.24281081  0.63041588    -0.05800
C962        C  0.49908847  0.27859649  0.63450972     0.00100
C963        C  0.52106407  0.29514042  0.62324723    -0.08500
C964        C  0.52075773  0.27518161  0.60838378    -0.05800
C965        C  0.49967454  0.23940621  0.60449938     0.00100
C966        C  0.47766195  0.22310918  0.61556201    -0.08400
C967        C  0.45352941  0.18603920  0.61147222     0.62000
H968        H  0.46104167  0.23035635  0.63898793     0.12700
H969        H  0.53674100  0.28791560  0.59947446     0.12700
C970        C  0.54497859  0.33307190  0.62676611     0.62300
F971        F  0.43338065  0.17604286  0.62374283    -0.22900
F972        F  0.46945882  0.14600198  0.60743501    -0.20200
F973        F  0.43489949  0.20059450  0.59912157    -0.19900
F974        F  0.56368080  0.32053208  0.63933147    -0.20000
F975        F  0.52888750  0.37365971  0.62997798    -0.20300
F976        F  0.56521428  0.34147215  0.61438635    -0.23000
C977        C  0.61689776  0.30041921  0.68865922    -0.05800
C978        C  0.59468755  0.26977206  0.68210209     0.00100
C979        C  0.60583651  0.22876332  0.67509572    -0.08500
C980        C  0.63888742  0.21970512  0.67516959    -0.05800
C981        C  0.66128312  0.25004066  0.68188578     0.00100
C982        C  0.65000406  0.29132010  0.68884594    -0.08400
C983        C  0.67228746  0.32555066  0.69662168     0.62000
H984        H  0.60795832  0.33222672  0.69364459     0.12700
H985        H  0.64752811  0.18840393  0.66973128     0.12700
C986        C  0.58329112  0.19558111  0.66699164     0.62300
F987        F  0.65568028  0.36113105  0.70366722    -0.22900
F988        F  0.69245120  0.34496668  0.68572137    -0.20200
F989        F  0.69013426  0.30339785  0.70793414    -0.19900
F990        F  0.56547767  0.21906733  0.65596765    -0.20000
F991        F  0.56300725  0.17552906  0.67769622    -0.20300
F992        F  0.59963895  0.16046613  0.65955711    -0.23000
C993        C  0.48674058  0.40984626  0.85908859    -0.05800
C994        C  0.50557971  0.37174745  0.85486630     0.00100
C995        C  0.52580135  0.35089272  0.86595155    -0.08500
C996        C  0.52710587  0.36983407  0.88093511    -0.05800
C997        C  0.50844632  0.40839361  0.88527523     0.00100
C998        C  0.48721067  0.42810575  0.87419873    -0.08400
C999        C  0.46443839  0.46717971  0.87824332     0.62000
H1000       H  0.47162214  0.42542626  0.85029872     0.12700
H1001       H  0.54297072  0.35442290  0.88942819     0.12700
C1002       C  0.54638898  0.30953669  0.86181247     0.62300
F1003       F  0.44387220  0.47759967  0.86613614    -0.22900
F1004       F  0.48160962  0.50658264  0.88163945    -0.20200
F1005       F  0.44595364  0.45474337  0.89087050    -0.19900
F1006       F  0.56644934  0.32068945  0.84963335    -0.20000
F1007       F  0.52700201  0.27316577  0.85751691    -0.20300
F1008       F  0.56512506  0.29510306  0.87415166    -0.23000
C1009       C  0.59934978  0.24056198  0.81491677    -0.05800
C1010       C  0.59750293  0.28613307  0.80901987     0.00100
C1011       C  0.62524457  0.30568249  0.80221115    -0.08500
C1012       C  0.65352358  0.27916614  0.80182176    -0.05800
C1013       C  0.65525532  0.23379310  0.80772902     0.00100
C1014       C  0.62751801  0.21381511  0.81422778    -0.08400
C1015       C  0.62754714  0.16487553  0.82058304     0.62000
H1016       H  0.57820605  0.22549403  0.82006353     0.12700
H1017       H  0.67490435  0.29397260  0.79680276     0.12700
C1018       C  0.62533043  0.35377234  0.79512856     0.62300
F1019       F  0.59858368  0.15343538  0.82733388    -0.22900
F1020       F  0.65113876  0.16004749  0.83172493    -0.20200
F1021       F  0.63310789  0.13412934  0.80867110    -0.19900
F1022       F  0.61923499  0.38615052  0.80647790    -0.20000
F1023       F  0.60227731  0.35677930  0.78365741    -0.20300
F1024       F  0.65451380  0.36455631  0.78847074    -0.23000
C1025       C  0.53109531  0.34768065  0.75242114    -0.05800
C1026       C  0.50472324  0.33038230  0.76070739     0.00100
C1027       C  0.47699800  0.31647773  0.75257398    -0.08500
C1028       C  0.47722203  0.31861280  0.73630941    -0.05800
C1029       C  0.50379522  0.33502639  0.72799899     0.00100
C1030       C  0.53119375  0.35021466  0.73613744    -0.08400
C1031       C  0.56073521  0.36737811  0.72772183     0.62000
H1032       H  0.55180120  0.35916147  0.75888045     0.12700
H1033       H  0.45651604  0.30705972  0.72986024     0.12700
C1034       C  0.44694274  0.30100404  0.76096449     0.62300
F1035       F  0.58533308  0.37789690  0.73785755    -0.22900
F1036       F  0.55336159  0.40686264  0.71940666    -0.20200
F1037       F  0.57162772  0.33369815  0.71773128    -0.19900
F1038       F  0.43738061  0.33465144  0.77130293    -0.20000
F1039       F  0.45288958  0.26035713  0.76889329    -0.20300
F1040       F  0.42185752  0.29329688  0.75082064    -0.23000
C1041       C  0.27947269  0.52300337  0.62738983    -0.05800
C1042       C  0.25490061  0.49427831  0.63295571     0.00100
C1043       C  0.22488980  0.00245209  0.62393615    -0.08500
C1044       C  0.22551154  0.02055898  0.60882315    -0.05800
C1045       C  0.25449783  0.02999645  0.60134533     0.00100
C1046       C  0.27829123  0.54278735  0.61251569    -0.08400
C1047       C  0.30546290  0.57293294  0.60677220     0.62000
H1048       H  0.29965872  0.53009825  0.63488784     0.12700
H1049       H  0.20338080  0.02706328  0.60264792     0.12700
C1050       C  0.19317216  0.99420472  0.63200153     0.62300
F1051       F  0.32921809  0.57791601  0.61782138    -0.22900
F1052       F  0.31574894  0.07824422  0.59637010    -0.20200
F1053       F  0.31903587  0.55351204  0.59372860    -0.19900
F1054       F  0.19109628  0.02198307  0.64494334    -0.20000
F1055       F  0.19092036  0.94847343  0.63647404    -0.20300
F1056       F  0.16741921  0.00423204  0.62245899    -0.23000
C1057       C  0.11509258  0.04439742  0.69035588    -0.05800
C1058       C  0.09445081  0.01617864  0.68168312     0.00100
C1059       C  0.10514511  0.47677748  0.67276565    -0.08500
C1060       C  0.13856732  0.47183354  0.67227779    -0.05800
C1061       C  0.16161690  0.00362039  0.68056519     0.00100
C1062       C  0.14854468  0.03843108  0.69014739    -0.08400
C1063       C  0.16938251  0.06844762  0.70039114     0.62000
H1064       H  0.10483016  0.07164575  0.69712282     0.12700
H1065       H  0.14880119  0.44447978  0.66534313     0.12700
C1066       C  0.08411246  0.44518674  0.66315619     0.62300
F1067       F  0.15133011  0.09660736  0.70993332    -0.22900
F1068       F  0.18850385  0.09645191  0.69131605    -0.20200
F1069       F  0.18839220  0.04086037  0.70973498    -0.10300
F1070       F  0.06509368  0.47121014  0.65330937    -0.20000
F1071       F  0.06491666  0.41908838  0.67281701    -0.20300
F1072       F  0.10196809  0.41516937  0.65419213    -0.23000
C1073       C  0.35106791  0.36852441  0.68595712    -0.05800
C1074       C  0.34782139  0.41383925  0.68020207     0.00100
C1075       C  0.37530303  0.43674014  0.67451903    -0.08500
C1076       C  0.40484652  0.41308262  0.67463385    -0.05800
C1077       C  0.40821012  0.36747648  0.68029142     0.00100
C1078       C  0.38060325  0.34487382  0.68622162    -0.08400
C1079       C  0.38181333  0.29637889  0.69300435     0.62000
H1080       H  0.32989238  0.35150678  0.69034855     0.12700
H1081       H  0.42578294  0.43051098  0.67018255     0.12700
C1082       C  0.37353598  0.48542674  0.66798867     0.62300
F1083       F  0.35244824  0.28251888  0.69876654    -0.22900
F1084       F  0.40353402  0.29473792  0.70510045    -0.20200
F1085       F  0.39061311  0.26527634  0.68166154    -0.19900
F1086       F  0.36538154  0.51591921  0.67961985    -0.20000
F1087       F  0.35088035  0.48750720  0.65631006    -0.20300
F1088       F  0.40248152  0.49957524  0.66183105    -0.23000
C1089       C  0.28113336  0.39560103  0.86008344    -0.05800
C1090       C  0.25181251  0.40928228  0.85360086     0.00100
C1091       C  0.22333893  0.40495433  0.86225413    -0.08500
C1092       C  0.22500210  0.38560483  0.87716074    -0.05800
C1093       C  0.25415310  0.37060544  0.88353796     0.00100
C1094       C  0.28284532  0.37655465  0.87509470    -0.08400
C1095       C  0.31501782  0.36420423  0.88213520     0.62000
H1096       H  0.30261832  0.39957542  0.85322952     0.12700
H1097       H  0.20351439  0.38256845  0.88409731     0.12700
C1098       C  0.19153813  0.42160451  0.85577468     0.62300
F1099       F  0.34002102  0.37374478  0.87212642    -0.22900
F1100       F  0.31583257  0.31764205  0.88563614    -0.20200
F1101       F  0.31972115  0.38929995  0.89553640    -0.19900
F1102       F  0.18306678  0.39531590  0.84309753    -0.20000
F1103       F  0.19415376  0.46729304  0.85125828    -0.20300
F1104       F  0.16725353  0.41849492  0.86661664    -0.23000
C1105       C  0.39054381  0.35457952  0.81304698    -0.05800
C1106       C  0.41199129  0.38604120  0.80612777     0.00100
C1107       C  0.39939253  0.42513820  0.79826707    -0.08500
C1108       C  0.36588970  0.43137725  0.79793656    -0.05800
C1109       C  0.34468325  0.39966442  0.80484594     0.00100
C1110       C  0.35722210  0.36021148  0.81240630    -0.08400
C1111       C  0.33582142  0.32448666  0.82009152     0.62000
H1112       H  0.40013847  0.32477015  0.81906555     0.12700
H1113       H  0.35584481  0.46146681  0.79222560     0.12700
C1114       C  0.42077690  0.45976716  0.79007824     0.62300
F1115       F  0.35325408  0.29110658  0.82794509    -0.22900
F1116       F  0.31766338  0.30246739  0.80896582    -0.20200
F1117       F  0.31585133  0.34560937  0.83066570    -0.19900
F1118       F  0.43967850  0.43741260  0.77929727    -0.20000
F1119       F  0.44000645  0.48175519  0.80078282    -0.20300
F1120       F  0.40324340  0.49326294  0.78233124    -0.23000
C1121       C  0.14874063  0.51837369  0.81914849    -0.05800
C1122       C  0.15548486  0.48195480  0.80888943     0.00100
C1123       C  0.14817272  0.02312326  0.81781488    -0.08500
C1124       C  0.11767152  0.04395581  0.81732696    -0.05800
C1125       C  0.09538094  0.03275211  0.80587116     0.00100
C1126       C  0.10351471  0.99990534  0.79438421    -0.08400
C1127       C  0.08061445  0.98884638  0.78125196     0.62000
H1128       H  0.16723804  0.52906516  0.82716267     0.12700
H1129       H  0.11085224  0.06906837  0.82597103     0.12700
C1130       C  0.17122413  0.03663803  0.83064727     0.62300
F1131       F  0.13730246  0.58382407  0.84133609    -0.22900
F1132       F  0.07163616  0.02922980  0.77383699    -0.20200
F1133       F  0.05370620  0.96712730  0.78700539    -0.19900
F1134       F  0.19562826  0.06327136  0.82458657    -0.20000
F1135       F  0.18397099  0.99757650  0.83757248    -0.20300
F1136       F  0.15622192  0.06214173  0.84206727    -0.23000
C1137       C  0.25527862  0.40963480  0.75149028    -0.05800
C1138       C  0.24845886  0.45059763  0.75960436     0.00100
C1139       C  0.24091347  0.49120834  0.75120686    -0.08500
C1140       C  0.24150200  0.48942102  0.73494658    -0.05800
C1141       C  0.24893697  0.44863361  0.72684439     0.00100
C1142       C  0.25543694  0.40769218  0.73524603    -0.08400
C1143       C  0.26314522  0.36237619  0.72726397     0.62000
H1144       H  0.26077022  0.37870064  0.75805540     0.12700
H1145       H  0.23628370  0.52042076  0.72836445     0.12700
C1146       C  0.23173414  0.53595481  0.75920004     0.62300
F1147       F  0.27125968  0.32800156  0.73774112    -0.22900
F1148       F  0.28870601  0.36821518  0.71728663    -0.20200
F1149       F  0.23670201  0.34750993  0.71905307    -0.19900
F1150       F  0.25896344  0.05695463  0.76608670    -0.20000
F1151       F  0.20699459  0.52808111  0.76950830    -0.20300
F1152       F  0.22409436  0.07175704  0.74701613    -0.23000
C1153       C  0.23766801  0.11006574  0.35483896    -0.05800
C1154       C  0.24092017  0.15784110  0.35177946     0.00100
C1155       C  0.24262418  0.18867176  0.36447758    -0.08500
C1156       C  0.24094940  0.17033766  0.37956247    -0.05800
C1157       C  0.23724316  0.12276809  0.38253110     0.00100
C1158       C  0.23558423  0.09193683  0.36992893    -0.08400
C1159       C  0.23083270  0.04038361  0.37222318     0.62000
H1160       H  0.23669210  0.08634074  0.34522273     0.12700
H1161       H  0.24256797  0.19351536  0.38932147     0.12700
C1162       C  0.24578919  0.24059449  0.36240358     0.62300
F1163       F  0.22644831  0.01762234  0.35831328    -0.22900
F1164       F  0.20405151  0.03258586  0.38125924    -0.20200
F1165       F  0.25746554  0.02151633  0.37936581    -0.19900
F1166       F  0.22032070  0.25732379  0.35379087    -0.20000
F1167       F  0.27426914  0.25069511  0.35500217    -0.20300
F1168       F  0.24580602  0.26364170  0.37642275    -0.23000
C1169       C  0.27087761  0.31341624  0.12991000    -0.05800
C1170       C  0.25306925  0.27339862  0.13358188     0.00100
C1171       C  0.23171988  0.25531064  0.12235930    -0.08500
C1172       C  0.22994414  0.27709125  0.10781306    -0.05800
C1173       C  0.24836647  0.31606171  0.10413568     0.00100
C1174       C  0.26883341  0.33516228  0.11535755    -0.08400
C1175       C  0.28907603  0.37729565  0.11178349     0.62000
H1176       H  0.28690414  0.32750667  0.13852390     0.12700
H1177       H  0.21477903  0.26283592  0.09885171     0.12700
C1178       C  0.21074404  0.21356974  0.12551043     0.62300
F1179       F  0.30769917  0.39014593  0.12431109    -0.22900
F1180       F  0.26936722  0.41403059  0.10798720    -0.20200
F1181       F  0.30923982  0.36815192  0.09947216    -0.19900
F1182       F  0.19187282  0.22147310  0.13838995    -0.20000
F1183       F  0.22971750  0.17506383  0.12796105    -0.20300
F1184       F  0.19055703  0.20410525  0.11320559    -0.23000
C1185       C  0.27588579  0.23097227  0.23473868    -0.05800
C1186       C  0.25312785  0.20668206  0.22591517     0.00100
C1187       C  0.22731905  0.18459244  0.23346201    -0.08500
C1188       C  0.22525173  0.18794228  0.24963946    -0.05800
C1189       C  0.24780295  0.21265991  0.25840301     0.00100
C1190       C  0.27360076  0.23474099  0.25089114    -0.08400
C1191       C  0.29880154  0.26157331  0.25978289     0.62000
H1192       H  0.29539165  0.24792177  0.22876427     0.12700
H1193       H  0.20587339  0.17087290  0.25567703     0.12700
C1194       C  0.20169724  0.15856780  0.22460052     0.62300
F1195       F  0.32280648  0.27783030  0.25018042    -0.22900
F1196       F  0.31284360  0.23358489  0.27088763    -0.20200
F1197       F  0.28473465  0.29917797  0.26688109    -0.19900
F1198       F  0.21533545  0.12133729  0.21709841    -0.20000
F1199       F  0.18734563  0.18751322  0.21386083    -0.20300
F1200       F  0.17799693  0.14184218  0.23429042    -0.23000
C1201       C  0.46718489  0.13319052  0.37812009    -0.05800
C1202       C  0.49211205  0.15941924  0.38440204     0.00100
C1203       C  0.51982331  0.16815426  0.37556979    -0.08500
C1204       C  0.52115535  0.15177326  0.36028800    -0.05800
C1205       C  0.49618271  0.12558467  0.35383685     0.00100
C1206       C  0.46866983  0.11582899  0.36291932    -0.08400
C1207       C  0.44084896  0.08781656  0.35667502     0.62000
H1208       H  0.44676203  0.12561361  0.38540798     0.12700
H1209       H  0.54203597  0.15891607  0.35326489     0.12700
C1210       C  0.54816306  0.19338747  0.38252977     0.62300
F1211       F  0.41571023  0.08572825  0.36708372    -0.22900
F1212       F  0.45083230  0.04316212  0.35378498    -0.20200
F1213       F  0.42943925  0.10748924  0.34313543    -0.19900
F1214       F  0.55997678  0.16856192  0.39501122    -0.20000
F1215       F  0.53865866  0.23658083  0.38751029    -0.20300
F1216       F  0.57271040  0.19901859  0.37194537    -0.23000
C1217       C  0.38774774  0.12597612  0.29391394    -0.05800
C1218       C  0.40770147  0.15280610  0.30336577     0.00100
C1219       C  0.39448178  0.18956930  0.31193794    -0.08500
C1220       C  0.36097476  0.19480097  0.31205170    -0.05800
C1221       C  0.34065405  0.16571167  0.30341622     0.00100
C1222       C  0.35447557  0.13251808  0.29342267    -0.08400
C1223       C  0.33472839  0.10474909  0.28200164     0.62000
H1224       H  0.39854810  0.09889147  0.28706364     0.12700
H1225       H  0.35036235  0.22149644  0.31911521     0.12700
C1226       C  0.41541495  0.22250373  0.32105711     0.62300
F1227       F  0.35386925  0.08056055  0.27175289    -0.22900
F1228       F  0.31542855  0.13397754  0.27336881    -0.20200
F1229       F  0.31598255  0.07323992  0.28987174    -0.19900
F1230       F  0.43593050  0.24517415  0.31105339    -0.20000
F1231       F  0.43313275  0.19844507  0.33195197    -0.20300
F1232       F  0.39750130  0.25552797  0.32872341    -0.23000
C1233       C  0.50853817  0.56317479  0.10664229    -0.05800
C1234       C  0.50712309  0.51515137  0.10386311     0.00100
C1235       C  0.52952149  0.02334659  0.11108458    -0.08500
C1236       C  0.52811468  0.04053329  0.12629959    -0.05800
C1237       C  0.49929925  0.05635288  0.13266744     0.00100
C1238       C  0.50846240  0.58181019  0.12168285    -0.08400
C1239       C  0.51075051  0.63368351  0.12383185     0.62000
H1240       H  0.50953174  0.58647018  0.09681718     0.12700
H1241       H  0.54941415  0.04087226  0.13349471     0.12700
C1242       C  0.56151658  0.00983111  0.10414086     0.62300
F1243       F  0.51249563  0.65693471  0.10981874    -0.22900
F1244       F  0.53806921  0.64409245  0.13216399    -0.20200
F1245       F  0.48411082  0.64969297  0.13165243    -0.19900
F1246       F  0.56697261  0.03556892  0.09088884    -0.20000
F1247       F  0.56147094  0.96348215  0.10045078    -0.20300
F1248       F  0.58657602  0.01768088  0.11429144    -0.23000
C1249       C  0.34963457  0.13405871  0.18598355    -0.05800
C1250       C  0.34652920  0.17592216  0.17778685     0.00100
C1251       C  0.37245571  0.19240010  0.16893090    -0.08500
C1252       C  0.40107161  0.16682247  0.16892124    -0.05800
C1253       C  0.40460083  0.12547161  0.17743082     0.00100
C1254       C  0.37827278  0.10838734  0.18602857    -0.08400
C1255       C  0.38034786  0.06412269  0.19548024     0.62000
H1256       H  0.32918306  0.12161921  0.19245629     0.12700
H1257       H  0.42124301  0.17935612  0.16227461     0.12700
C1258       C  0.36967715  0.23602547  0.15924541     0.62300
F1259       F  0.35255292  0.05585040  0.20374002    -0.22900
F1260       F  0.40529014  0.06691925  0.20598065    -0.20200
F1261       F  0.38529267  0.02705303  0.18572612    -0.19900
F1262       F  0.36532193  0.27359800  0.16883112    -0.20000
F1263       F  0.34392312  0.23254590  0.14924029    -0.20300
F1264       F  0.39685312  0.24373180  0.15046376    -0.23000
C1265       C  0.48368959  0.12053709  0.23420619    -0.05800
C1266       C  0.49559545  0.08063935  0.22714987     0.00100
C1267       C  0.50677393  0.04332723  0.23648220    -0.08500
C1268       C  0.50637331  0.04824419  0.25265583    -0.05800
C1269       C  0.49502742  0.08848720  0.25965858     0.00100
C1270       C  0.48262315  0.12492855  0.25037958    -0.08400
C1271       C  0.46713860  0.16748157  0.25741804     0.62000
H1272       H  0.47475504  0.14816201  0.22688660     0.12700
H1273       H  0.51527691  0.02072755  0.26003450     0.12700
C1274       C  0.51956396  0.99870249  0.22960016     0.62300
F1275       F  0.45186613  0.19429626  0.24633226    -0.22900
F1276       F  0.49005895  0.19450537  0.26447964    -0.20200
F1277       F  0.44448630  0.15432050  0.26821832    -0.19900
F1278       F  0.54252640  0.00819561  0.21854179    -0.20000
F1279       F  0.49479552  0.97429649  0.22291347    -0.20300
F1280       F  0.53810431  0.47298119  0.23996666    -0.23000
C1281       C  0.97009705  0.37844246  0.37663898    -0.05800
C1282       C  0.99648288  0.40257315  0.38244546     0.00100
C1283       C  0.02433839  0.40738319  0.37337650    -0.08500
C1284       C  0.02489716  0.38748133  0.35856365    -0.05800
C1285       C  0.99859620  0.36287266  0.35269488     0.00100
C1286       C  0.97043877  0.35884550  0.36175345    -0.08400
C1287       C  0.94051341  0.33571518  0.35556976     0.62000
H1288       H  0.94926730  0.37462264  0.38400643     0.12700
H1289       H  0.04593130  0.39129196  0.35134133     0.12700
C1290       C  0.05315248  0.43356989  0.37940565     0.62300
F1291       F  0.91532219  0.33845073  0.36592895    -0.22900
F1292       F  0.94659509  0.28958941  0.35279361    -0.20200
F1293       F  0.93104066  0.35703994  0.34196535    -0.19900
F1294       F  0.06496524  0.41211939  0.39256167    -0.20000
F1295       F  0.04420952  0.47821551  0.38302657    -0.20300
F1296       F  0.07751112  0.43563899  0.36857138    -0.23000
C1297       C  0.09470679  0.23740385  0.31380264    -0.05800
C1298       C  0.08923058  0.27823082  0.30520345     0.00100
C1299       C  0.11396798  0.29540527  0.29553038    -0.08500
C1300       C  0.14363097  0.27237405  0.29549686    -0.05800
C1301       C  0.14926062  0.23261907  0.30446189     0.00100
C1302       C  0.12434354  0.21415358  0.31357077    -0.08400
C1303       C  0.12935132  0.17109869  0.32335339     0.62000
H1304       H  0.07559607  0.22399819  0.32093223     0.12700
H1305       H  0.16311334  0.28576469  0.28858809     0.12700
C1306       C  0.10937385  0.33726483  0.28509139     0.62300
F1307       F  0.10253917  0.16038345  0.33203992    -0.22900
F1308       F  0.15467783  0.17759088  0.33343656    -0.20200
F1309       F  0.13592348  0.13400149  0.31384136    -0.19900
F1310       F  0.10572594  0.37643035  0.29400823    -0.20000
F1311       F  0.08264622  0.33139898  0.27585268    -0.20300
F1312       F  0.13531985  0.34415693  0.27539962    -0.23000
C1313       C  0.98795971  0.31849088  0.10529666    -0.05800
C1314       C  0.99743624  0.27389441  0.10050207     0.00100
C1315       C  0.00781623  0.24159539  0.11188151    -0.08500
C1316       C  0.00922578  0.25594579  0.12738795    -0.05800
C1317       C  0.99965607  0.30031276  0.13204630     0.00100
C1318       C  0.98837382  0.33208703  0.12087875    -0.08400
C1319       C  0.97561976  0.37935676  0.12535009     0.62000
H1320       H  0.97981942  0.34313478  0.09671808     0.12700
H1321       H  0.01751604  0.23204419  0.13619297     0.12700
C1322       C  0.01680615  0.19203445  0.10805162     0.62300
F1323       F  0.96263585  0.40271460  0.11280321    -0.22900
F1324       F  0.00016090  0.40593129  0.13124673    -0.20200
F1325       F  0.95184314  0.37466447  0.13638152    -0.19900
F1326       F  0.04313835  0.19137802  0.09836995    -0.20000
F1327       F  0.99124449  0.17033545  0.10097800    -0.20300
F1328       F  0.02455005  0.16667942  0.12116329    -0.23000
C1329       C  0.11479142  0.32125737  0.18226669    -0.05800
C1330       C  0.09323753  0.28371113  0.18176448     0.00100
C1331       C  0.10587196  0.23823855  0.18207652    -0.08500
C1332       C  0.13925755  0.23255154  0.18250210    -0.05800
C1333       C  0.16080740  0.27002913  0.18232167     0.00100
C1334       C  0.14826001  0.31544227  0.18251667    -0.08400
C1335       C  0.16963919  0.35778431  0.18280879     0.62000
H1336       H  0.10523660  0.35594823  0.18232819     0.12700
H1337       H  0.14882762  0.19787466  0.18279711     0.12700
C1338       C  0.08482317  0.19546922  0.18173166     0.62300
F1339       F  0.15218685  0.39844981  0.18265273    -0.22900
F1340       F  0.18934441  0.35804384  0.16994580    -0.20200
F1341       F  0.18798330  0.35741712  0.19615317    -0.19900
F1342       F  0.06663021  0.19537642  0.16833543    -0.20000
F1343       F  0.06506129  0.19484224  0.19457000    -0.20300
F1344       F  0.10255317  0.15504216  0.18195261    -0.23000
C1345       C  0.00717820  0.28564018  0.23430484    -0.05800
C1346       C  0.99493724  0.32469600  0.22654616     0.00100
C1347       C  0.98011588  0.36025315  0.23509339    -0.08500
C1348       C  0.97918034  0.35617326  0.25129070    -0.05800
C1349       C  0.99217870  0.31773911  0.25909234     0.00100
C1350       C  0.00609852  0.28144506  0.25051973    -0.08400
C1351       C  0.02050093  0.23929271  0.25839892     0.62000
H1352       H  0.01790794  0.25836875  0.22748783     0.12700
H1353       H  0.96858619  0.38358374  0.25809837     0.12700
C1354       C  0.96474202  0.40167033  0.22719782     0.62300
F1355       F  0.03452385  0.20956581  0.24786904    -0.22900
F1356       F  0.99682776  0.21529721  0.26614566    -0.20200
F1357       F  0.04377320  0.25269149  0.26883931    -0.19900
F1358       F  0.94301864  0.38699912  0.21617046    -0.20000
F1359       F  0.98803267  0.42822376  0.22015404    -0.20300
F1360       F  0.94852434  0.42934250  0.23761612    -0.23000
C1361       C  0.74279950  0.34943632  0.35495629    -0.05800
C1362       C  0.73935376  0.39720812  0.35215130     0.00100
C1363       C  0.73473088  0.42721049  0.36479795    -0.08500
C1364       C  0.73454417  0.40827159  0.37978675    -0.05800
C1365       C  0.73764337  0.36036625  0.38265268     0.00100
C1366       C  0.74151135  0.33021259  0.36991542    -0.08400
C1367       C  0.74353142  0.27811211  0.37181928     0.62000
H1368       H  0.74641797  0.32676802  0.34518272     0.12700
H1369       H  0.73188067  0.43146351  0.38948153     0.12700
C1370       C  0.72888346  0.47861465  0.36261951     0.62300
F1371       F  0.74420333  0.25563938  0.35769770    -0.22900
F1372       F  0.71707665  0.26233030  0.37985376    -0.20200
F1373       F  0.77115161  0.26634647  0.37974555    -0.19900
F1374       F  0.70357061  0.48552384  0.35252202    -0.20000
F1375       F  0.75607247  0.49937093  0.35676434    -0.20300
F1376       F  0.72132779  0.50021294  0.37642140    -0.23000
C1377       C  0.85804159  0.42629735  0.30118809    -0.05800
C1378       C  0.83602534  0.39212873  0.30580145     0.00100
C1379       C  0.84775519  0.34977119  0.31168969    -0.08500
C1380       C  0.88096909  0.34204785  0.31166095    -0.05800
C1381       C  0.90311257  0.37561802  0.30657396     0.00100
C1382       C  0.89138599  0.41944751  0.30181737    -0.08400
C1383       C  0.91342233  0.45924575  0.29762262     0.62000
H1384       H  0.84879070  0.45914190  0.29716436     0.12700
H1385       H  0.88985904  0.30918850  0.31583303     0.12700
C1386       C  0.82569897  0.31353313  0.31859278     0.62300
F1387       F  0.89657221  0.49882488  0.29373071    -0.22900
F1388       F  0.93221186  0.44746354  0.28506385    -0.20200
F1389       F  0.93266455  0.46976387  0.31017035    -0.19900
F1390       F  0.80672933  0.29488942  0.30709990    -0.20000
F1391       F  0.80655030  0.33336541  0.32982080    -0.20300
F1392       F  0.84257445  0.27780380  0.32551513    -0.23000
C1393       C  0.64228614  0.02523565  0.31634680    -0.05800
C1394       C  0.64538004  0.98490323  0.30733557     0.00100
C1395       C  0.61901185  0.97074279  0.29815673    -0.08500
C1396       C  0.59042720  0.99676349  0.29873123    -0.05800
C1397       C  0.58771468  0.03732672  0.30755876     0.00100
C1398       C  0.61416994  0.05213287  0.31643293    -0.08400
C1399       C  0.61270092  0.09581014  0.32608291     0.62000
H1400       H  0.66251513  0.03618337  0.32324177     0.12700
H1401       H  0.56990027  0.98601122  0.29199539     0.12700
C1402       C  0.62120666  0.92970759  0.28732754     0.62300
F1403       F  0.64002431  0.10167271  0.33492589    -0.22900
F1404       F  0.58679375  0.09402942  0.33602634    -0.20200
F1405       F  0.60970088  0.13377116  0.31643449    -0.19900
F1406       F  0.62504811  0.88957664  0.29584096    -0.20000
F1407       F  0.62921657  0.38532091  0.30821238    -0.20300
F1408       F  0.59393671  0.92505843  0.27835400    -0.23000
C1409       C  0.77042886  0.01292442  0.10783143    -0.05800
C1410       C  0.75230083  0.05309081  0.10455284     0.00100
C1411       C  0.73123644  0.07033832  0.11608328    -0.08500
C1412       C  0.73056127  0.04809827  0.13060881    -0.05800
C1413       C  0.74894956  0.00853063  0.13372692     0.00100
C1414       C  0.76871279  0.98992283  0.12214238    -0.08400
C1415       C  0.78842573  0.94665579  0.12506014     0.62000
H1416       H  0.78617835  0.99924941  0.09902466     0.12700
H1417       H  0.71567474  0.06162262  0.13981008     0.12700
C1418       C  0.70904183  0.11106865  0.11317933     0.62300
F1419       F  0.80678527  0.93482350  0.11234157    -0.22900
F1420       F  0.76827739  0.91010495  0.12830632    -0.20200
F1421       F  0.80877538  0.95347069  0.13748462    -0.19900
F1422       F  0.72144886  0.63816781  0.10773703    -0.20000
F1423       F  0.72682029  0.15049913  0.11055540    -0.20300
F1424       F  0.68916901  0.11943283  0.12568541    -0.23000
C1425       C  0.64567032  0.04275894  0.19034951    -0.05800
C1426       C  0.65557205  0.00772200  0.18028486     0.00100
C1427       C  0.63264670  0.98599338  0.17051317    -0.08500
C1428       C  0.60034552  0.99856429  0.17191246    -0.05800
C1429       C  0.59054425  0.03354805  0.18194180     0.00100
C1430       C  0.61352371  0.05682237  0.19118054    -0.08400
C1431       C  0.60445105  0.09626910  0.20189716     0.62000
H1432       H  0.66347716  0.05933964  0.19753677     0.12700
H1433       H  0.58055449  0.47112706  0.17141115     0.12700
C1434       C  0.63744861  0.42993982  0.16654995     0.62300
F1435       F  0.62958282  0.10875663  0.21145053    -0.22900
F1436       F  0.57911048  0.08349408  0.21122831    -0.20200
F1437       F  0.59594177  0.13462342  0.19324688    -0.19900
F1438       F  0.64893316  0.39703830  0.17680088    -0.20000
F1439       F  0.65913162  0.43659633  0.15465534    -0.20300
F1440       F  0.60971394  0.41254742  0.16002725    -0.23000
C1441       C  0.84831523  0.36955988  0.18529520    -0.05800
C1442       C  0.84390653  0.41184331  0.17752110     0.00100
C1443       C  0.86929603  0.43053523  0.16875313    -0.08500
C1444       C  0.89890735  0.40730619  0.16879252    -0.05800
C1445       C  0.90373396  0.36556300  0.17694805     0.00100
C1446       C  0.87770424  0.34571647  0.18509636    -0.08400
C1447       C  0.88072877  0.30011182  0.19371374     0.62000
H1448       H  0.82823832  0.35522664  0.19160423     0.12700
H1449       H  0.91874445  0.42184813  0.16237194     0.12700
C1450       C  0.86484055  0.47370392  0.15895456     0.62300
F1451       F  0.85286830  0.28869049  0.20147832    -0.22900
F1452       F  0.90509619  0.30260520  0.20452922    -0.20200
F1453       F  0.88718143  0.26516781  0.18330128    -0.19900
F1454       F  0.85935172  0.51124892  0.16841390    -0.20000
F1455       F  0.83907519  0.46806969  0.14906703    -0.20300
F1456       F  0.89154062  0.48307260  0.15001046    -0.23000
C1457       C  0.72181226  0.42737294  0.25031270    -0.05800
C1458       C  0.74570681  0.45027098  0.25883089     0.00100
C1459       C  0.76888786  0.96738589  0.25136771    -0.08500
C1460       C  0.77083073  0.96514447  0.23513980    -0.05800
C1461       C  0.74976184  0.44226942  0.22629073     0.00100
C1462       C  0.72323377  0.42312978  0.23413045    -0.08400
C1463       C  0.69613635  0.39955808  0.22552525     0.62000
H1464       H  0.70184911  0.41245814  0.25653941     0.12700
H1465       H  0.79092362  0.98087125  0.22924857     0.12700
C1466       C  0.79578487  0.98976997  0.26046745     0.62300
F1467       F  0.67180019  0.38604548  0.23540830    -0.22900
F1468       F  0.70761140  0.36057767  0.21818620    -0.20200
F1469       F  0.68317745  0.42943162  0.21465717    -0.19900
F1470       F  0.81226196  0.46472810  0.27044066    -0.20000
F1471       F  0.78443552  0.02880169  0.26782100    -0.20300
F1472       F  0.82090230  0.00290911  0.25100031    -0.23000
O1473       O  0.80639242  0.47497139  0.18059605    -0.73000
O1474       O  0.71366009  0.51902517  0.18285289    -0.74000
O1475       O  0.75992848  0.48594747  0.20404040    -0.62600
O1476       O  0.76124660  0.51400694  0.15983866    -0.71000
O1477       O  0.74264522  0.95093812  0.15368269    -0.70500
O1478       O  0.74142858  0.91866355  0.19953683    -0.61800
O1479       O  0.69861058  0.44760508  0.17803669    -0.74300
O1480       O  0.78695484  0.91209178  0.17513576    -0.73100
Cu1481     Cu  0.76096829  0.50086007  0.18199404     1.04600
Cu1482     Cu  0.74161284  0.93109039  0.17630579     1.04300
C1483       C  0.81023636  0.93937525  0.17757564     0.93200
C1484       C  0.69133939  0.48930245  0.18066433     0.92400
C1485       C  0.74889257  0.95041117  0.20917431     0.84500
C1486       C  0.75205511  0.48545050  0.14966617     0.90800
O1487       O  0.79047388  0.94181935  0.30764600    -0.73000
O1488       O  0.70540447  0.49139047  0.30879730    -0.74000
O1489       O  0.74425033  0.94846870  0.33133825    -0.62600
O1490       O  0.74754066  0.97556559  0.28506921    -0.71000
O1491       O  0.72908768  0.90503091  0.28106993    -0.70500
O1492       O  0.72623058  0.87911175  0.32571542    -0.61800
O1493       O  0.68194336  0.91938367  0.30429437    -0.74300
O1494       O  0.77434536  0.87077842  0.30274084    -0.73100
Cu1495     Cu  0.74650558  0.96605031  0.30846428     1.04600
Cu1496     Cu  0.72715542  0.89116461  0.30330461     1.04300
C1497       C  0.79708653  0.89976932  0.30496311     0.93200
C1498       C  0.67772231  0.96262446  0.30684084     0.92400
C1499       C  0.73536802  0.90820649  0.33576048     0.84500
C1500       C  0.73935752  0.94318742  0.27579714     0.90800
O1501       O  0.00469762  0.86562723  0.19945065    -0.73000
O1502       O  0.00662243  0.85106927  0.15281577    -0.74000
O1503       O  0.96107394  0.88253854  0.17489537    -0.62600
O1504       O  0.05062563  0.83798878  0.17732848    -0.71000
O1505       O  0.03491283  0.76582862  0.18021489    -0.70500
O1506       O  0.94298030  0.81150233  0.17728929    -0.61800
O1507       O  0.99002095  0.77891781  0.15606220    -0.74300
O1508       O  0.98740037  0.79379463  0.20135149    -0.73100
Cu1509     Cu  0.00628608  0.86183016  0.17601298     1.04600
Cu1510     Cu  0.98813248  0.78505651  0.17877828     1.04300
C1511       C  0.99604792  0.83118104  0.20776578     0.93200
C1512       C  0.99902252  0.81167674  0.14727779     0.92400
C1513       C  0.93752683  0.85485520  0.17588819     0.84500
C1514       C  0.05750072  0.79549288  0.17926165     0.90800
O1515       O  0.03225092  0.77827460  0.30795506    -0.73000
O1516       O  0.94123106  0.81834531  0.30543238    -0.74000
O1517       O  0.98800781  0.79206129  0.28327154    -0.62600
O1518       O  0.98635941  0.80971578  0.32992995    -0.71000
O1519       O  0.00337920  0.88111202  0.32598034    -0.70500
O1520       O  0.00239628  0.86520135  0.28099064    -0.61800
O1521       O  0.95569041  0.89150121  0.30303891    -0.74300
O1522       O  0.04916186  0.84976610  0.30415669    -0.73100
Cu1523     Cu  0.98645721  0.79698655  0.30676030     1.04600
Cu1524     Cu  0.00323008  0.87434974  0.30344321     1.04300
C1525       C  0.05515473  0.80672431  0.30620992     0.93200
C1526       C  0.93372469  0.86078268  0.30410702     0.92400
C1527       C  0.99524428  0.82690190  0.27478971     0.84500
C1528       C  0.99464003  0.84924330  0.33517871     0.90800
O1529       O  0.51020575  0.60444786  0.15615758    -0.73000
O1530       O  0.50723047  0.61963444  0.20307831    -0.74000
O1531       O  0.55276728  0.59153189  0.18100182    -0.62600
O1532       O  0.46417376  0.63911600  0.17815157    -0.71000
O1533       O  0.44424015  0.56900655  0.18134870    -0.70500
O1534       O  0.53545210  0.51973029  0.18318649    -0.61800
O1535       O  0.48906899  0.54801024  0.20460293    -0.74300
O1536       O  0.48979099  0.53502360  0.15983457    -0.73100
Cu1537     Cu  0.50903740  0.61642617  0.17948089     1.04600
Cu1538     Cu  0.48885073  0.54065685  0.18227682     1.04300
C1539       C  0.50158796  0.56516760  0.15079932     0.93200
C1540       C  0.49883340  0.58434110  0.21113437     0.92400
C1541       C  0.55857288  0.54879338  0.18260935     0.84500
C1542       C  0.44013110  0.61261280  0.17973168     0.90800
O1543       O  0.50803405  0.63716913  0.32899931    -0.73000
O1544       O  0.50831136  0.62244215  0.28417089    -0.74000
O1545       O  0.46164330  0.65134687  0.30548504    -0.62600
O1546       O  0.55348607  0.60189516  0.30747384    -0.71000
O1547       O  0.53356379  0.53190071  0.31024568    -0.70500
O1548       O  0.44471255  0.57957362  0.30819215    -0.61800
O1549       O  0.48955079  0.55117601  0.28582620    -0.74300
O1550       O  0.48885372  0.56674698  0.33270990    -0.73100
Cu1551     Cu  0.50861340  0.63057848  0.30649817     1.04600
Cu1552     Cu  0.48866967  0.55472439  0.30939289     1.04300
C1553       C  0.49775784  0.60594681  0.33804151     0.93200
C1554       C  0.49819360  0.58618495  0.27770869     0.92400
C1555       C  0.43856928  0.62224470  0.30632460     0.84500
C1556       C  0.55777346  0.55817062  0.30878379     0.90800
O1557       O  0.25035628  0.70868846  0.15373076    -0.73000
O1558       O  0.24477057  0.68158430  0.19989174    -0.74000
O1559       O  0.20224635  0.71326916  0.17680702    -0.62600
O1560       O  0.29274001  0.67217438  0.17684487    -0.71000
O1561       O  0.30979377  0.74330714  0.18132433    -0.70500
O1562       O  0.21662466  0.78457258  0.18215241    -0.61800
O1563       O  0.26169012  0.75288955  0.20417383    -0.74300
O1564       O  0.26552098  0.77961657  0.15931933    -0.73100
Cu1565     Cu  0.24709507  0.69140569  0.17659620     1.04600
Cu1566     Cu  0.26399298  0.76755657  0.18187878     1.04300
C1567       C  0.25842328  0.74927389  0.14927320     0.93200
C1568       C  0.25213634  0.71406418  0.20925731     0.92400
C1569       C  0.19453244  0.75483624  0.17976200     0.84500
C1570       C  0.31554898  0.70034382  0.17918423     0.90800
O1571       O  0.20426922  0.74920863  0.30854714    -0.73000
O1572       O  0.29413538  0.70548499  0.30788669    -0.74000
O1573       O  0.25138320  0.73851053  0.28508430    -0.62600
O1574       O  0.24663016  0.71048121  0.33118513    -0.71000
O1575       O  0.23044300  0.64019367  0.32544525    -0.70500
O1576       O  0.23377607  0.66755178  0.28080551    -0.61800
O1577       O  0.27927498  0.63430384  0.30263151    -0.74300
O1578       O  0.18612770  0.67870762  0.30396625    -0.73100
Cu1579     Cu  0.24958120  0.72840282  0.30838234     1.04600
Cu1580     Cu  0.23176812  0.65273713  0.30304528     1.04300
C1581       C  0.18099281  0.72177591  0.30638397     0.93200
C1582       C  0.30160711  0.66378123  0.30503862     0.92400
C1583       C  0.24354994  0.70622957  0.27572180     0.84500
C1584       C  0.23813364  0.66998997  0.33554587     0.90800
O1585       O  0.23531673  0.88280576  0.82357823    -0.73000
O1586       O  0.24032907  0.91200288  0.77946012    -0.74000
O1587       O  0.28413247  0.87498779  0.80101010    -0.62600
O1588       O  0.19245600  0.92533188  0.80228721    -0.71000
O1589       O  0.21289886  0.99361894  0.80790776    -0.70500
O1590       O  0.30137502  0.94567659  0.80608428    -0.61800
O1591       O  0.25901047  0.98221168  0.78402105    -0.74300
O1592       O  0.25479436  0.95129664  0.82980119    -0.73100
Cu1593     Cu  0.23728827  0.89640222  0.80138858     1.04600
Cu1594     Cu  0.25751696  0.97071870  0.80716958     1.04300
C1595       C  0.24458753  0.91120436  0.83375192     0.93200
C1596       C  0.25101240  0.95033282  0.77455457     0.92400
C1597       C  0.30715529  0.90347848  0.80326388     0.84500
C1598       C  0.18866346  0.96821022  0.80555366     0.90800
O1599       O  0.24782573  0.94236625  0.65315624    -0.73000
O1600       O  0.24954586  0.92234433  0.69952954    -0.74000
O1601       O  0.20374409  0.95024140  0.67766651    -0.62600
O1602       O  0.29358935  0.90961218  0.67510630    -0.71000
O1603       O  0.31105235  0.98078284  0.67867539    -0.70500
O1604       O  0.21603491  0.52023053  0.68177415    -0.61800
O1605       O  0.26531303  0.99483650  0.70218753    -0.74300
O1606       O  0.26468743  0.01397133  0.65720061    -0.73100
Cu1607     Cu  0.24822133  0.92858948  0.67621226     1.04600
Cu1608     Cu  0.26543779  0.00568912  0.67980993     1.04300
C1609       C  0.25564773  0.98233356  0.64805941     0.93200
C1610       C  0.25731657  0.95640775  0.70813492     0.92400
C1611       C  0.19624215  0.99229296  0.67979279     0.84500
C1612       C  0.31670799  0.93765055  0.67682638     0.90800
O1613       O  0.45007256  0.82248796  0.80850161    -0.73000
O1614       O  0.53917203  0.77701033  0.81066995    -0.74000
O1615       O  0.49621910  0.81645349  0.83270288    -0.62600
O1616       O  0.49405174  0.78906703  0.78627051    -0.71000
O1617       O  0.51255454  0.85974679  0.78231090    -0.70500
O1618       O  0.51252463  0.88709650  0.82669121    -0.61800
O1619       O  0.55812977  0.84685965  0.80614902    -0.74300
O1620       O  0.46561466  0.89356521  0.80296944    -0.73100
Cu1621     Cu  0.49429816  0.79875139  0.80974566     1.04600
Cu1622     Cu  0.51287289  0.87424128  0.80439951     1.04300
C1623       C  0.44313411  0.86415858  0.80521639     0.93200
C1624       C  0.56294928  0.80361961  0.80856735     0.92400
C1625       C  0.50452450  0.85729081  0.83676115     0.84500
C1626       C  0.50307575  0.82132251  0.77703686     0.90800
O1627       O  0.53494399  0.75292239  0.68247394    -0.73000
O1628       O  0.44438021  0.80431665  0.68103280    -0.74000
O1629       O  0.48819226  0.76690127  0.65954537    -0.62600
O1630       O  0.49010184  0.78547936  0.70442252    -0.71000
O1631       O  0.51007963  0.85579735  0.70163165    -0.70500
O1632       O  0.50711271  0.83679069  0.65490127    -0.61800
O1633       O  0.46492407  0.87407067  0.67767616    -0.74300
O1634       O  0.55294262  0.82373695  0.67865106    -0.73100
Cu1635     Cu  0.48868418  0.77507092  0.68200299     1.04600
Cu1636     Cu  0.50938069  0.85018633  0.67809418     1.04300
C1637       C  0.55835724  0.78088433  0.68063299     0.93200
C1638       C  0.44069942  0.84787026  0.67905162     0.92400
C1639       C  0.49756072  0.79744561  0.64998923     0.84500
C1640       C  0.50064556  0.82252539  0.71032650     0.90800
O1641       O  0.74414559  0.67744217  0.65376897    -0.73000
O1642       O  0.74102184  0.65293061  0.70005861    -0.74000
O1643       O  0.69801295  0.68622374  0.67749151    -0.62600
O1644       O  0.78744232  0.63926308  0.67633978    -0.71000
O1645       O  0.80648476  0.70893480  0.68085934    -0.70500
O1646       O  0.71536264  0.75740731  0.68149660    -0.61800
O1647       O  0.75911550  0.72391051  0.70355114    -0.74300
O1648       O  0.76323797  0.74673388  0.65890215    -0.73100
Cu1649     Cu  0.74219054  0.66132672  0.67672149     1.04600
Cu1650     Cu  0.76178690  0.73653978  0.68132614     1.04300
C1651       C  0.75340927  0.71728126  0.64912988     0.93200
C1652       C  0.74887594  0.68602399  0.70907375     0.92400
C1653       C  0.69231726  0.72888159  0.67964623     0.84500
C1654       C  0.81125084  0.66577584  0.67870519     0.90800
O1655       O  0.80001031  0.69423134  0.80565476    -0.73000
O1656       O  0.71084985  0.73827221  0.80898970    -0.74000
O1657       O  0.75754985  0.70482014  0.83063174    -0.62600
O1658       O  0.75321882  0.72153728  0.78396686    -0.71000
O1659       O  0.73618170  0.64945730  0.78228227    -0.70500
O1660       O  0.73886069  0.63437110  0.82728369    -0.61800
O1661       O  0.69158808  0.66768530  0.80625872    -0.74300
O1662       O  0.78435066  0.62192689  0.80353751    -0.73100
Cu1663     Cu  0.75584521  0.71728220  0.80741516     1.04600
Cu1664     Cu  0.73703406  0.64091557  0.80477209     1.04300
C1665       C  0.80698628  0.65173802  0.80421822     0.93200
C1666       C  0.68702324  0.71121491  0.80792753     0.92400
C1667       C  0.74958812  0.66544787  0.83621389     0.84500
C1668       C  0.74450550  0.68693844  0.77579639     0.90800
O1669       O  0.00547034  0.59444548  0.70175363    -0.73000
O1670       O  0.00452998  0.57160363  0.65513552    -0.74000
O1671       O  0.95999395  0.60644874  0.67754531    -0.62600
O1672       O  0.05014189  0.56614598  0.67927840    -0.71000
O1673       O  0.03570842  0.49361754  0.68348815    -0.70500
O1674       O  0.94242227  0.53535212  0.68150393    -0.61800
O1675       O  0.98867806  0.50060179  0.66023235    -0.74300
O1676       O  0.98872452  0.52239424  0.70501278    -0.73100
Cu1677     Cu  0.00544342  0.58728698  0.67825787     1.04600
Cu1678     Cu  0.98824119  0.51055483  0.68267958     1.04300
C1679       C  0.99761668  0.56068301  0.71061290     0.93200
C1680       C  0.99726592  0.53098032  0.65043992     0.92400
C1681       C  0.93687646  0.57849725  0.67941369     0.84500
C1682       C  0.05756196  0.52414716  0.68156527     0.90800
O1683       O  0.94984105  0.56704450  0.80849884    -0.73000
O1684       O  0.03919726  0.52093031  0.81030611    -0.74000
O1685       O  0.99648178  0.56203443  0.83223680    -0.62600
O1686       O  0.99278130  0.53123148  0.78640385    -0.71000
O1687       O  0.01201219  0.60122072  0.78162733    -0.70500
O1688       O  0.01345869  0.63181237  0.82575675    -0.61800
O1689       O  0.05826060  0.59079549  0.80531060    -0.74300
O1690       O  0.96626093  0.63725414  0.80234711    -0.73100
Cu1691     Cu  0.99405218  0.54276210  0.80960010     1.04600
Cu1692     Cu  0.01317906  0.61765465  0.80358943     1.04300
C1693       C  0.94344934  0.60876314  0.80499452     0.93200
C1694       C  0.06283371  0.54778083  0.80810717     0.92400
C1695       C  0.00494053  0.60294442  0.83605632     0.84500
C1696       C  0.00166435  0.56265141  0.77686166     0.90800
O1697       O  0.80707891  0.79142416  0.55463892    -0.73000
O1698       O  0.71430726  0.74750995  0.55220111    -0.74000
O1699       O  0.76090398  0.77942993  0.53101778    -0.62600
O1700       O  0.76157811  0.75355936  0.57556639    -0.71000
O1701       O  0.74430485  0.82370277  0.58100878    -0.70500
O1702       O  0.74318213  0.85075896  0.53482942    -0.61800
O1703       O  0.69893855  0.81918799  0.55694946    -0.74300
O1704       O  0.78847280  0.86144687  0.55913814    -0.73100
Cu1705     Cu  0.76164982  0.76552977  0.55321519     1.04600
Cu1706     Cu  0.74329570  0.84132037  0.55816737     1.04300
C1707       C  0.81214316  0.83443189  0.55710135     0.93200
C1708       C  0.69194898  0.77733907  0.55425384     0.92400
C1709       C  0.75132190  0.81795459  0.52571973     0.84500
C1710       C  0.75253678  0.78313747  0.58547345     0.90800
O1711       O  0.73284442  0.85391741  0.45398527    -0.73000
O1712       O  0.72683913  0.87391937  0.40921276    -0.74000
O1713       O  0.68373551  0.84013837  0.43203976    -0.62600
O1714       O  0.77653011  0.88214707  0.43115640    -0.71000
O1715       O  0.79095372  0.80969715  0.42695257    -0.70500
O1716       O  0.70072567  0.76880267  0.42804348    -0.61800
O1717       O  0.74258192  0.80249060  0.40422029    -0.74300
O1718       O  0.74940413  0.78172989  0.45075636    -0.73100
Cu1719     Cu  0.72932540  0.86495505  0.43169870     1.04600
Cu1720     Cu  0.74630101  0.78802743  0.42731703     1.04300
C1721       C  0.74266887  0.81588035  0.45957503     0.93200
C1722       C  0.73457882  0.84295158  0.39952613     0.92400
C1723       C  0.67783491  0.79706647  0.43030543     0.84500
C1724       C  0.79840898  0.85171962  0.42905887     0.90800
O1725       O  0.00485413  0.87359363  0.40924084    -0.73000
O1726       O  0.00276936  0.89425344  0.45404149    -0.74000
O1727       O  0.95741687  0.86169452  0.43219616    -0.62600
O1728       O  0.04903005  0.91190994  0.43075045    -0.71000
O1729       O  0.02829259  0.98077541  0.42649399    -0.70500
O1730       O  0.94089277  0.93349474  0.42891338    -0.61800
O1731       O  0.98484142  0.96569053  0.45089650    -0.74300
O1732       O  0.98503671  0.94291727  0.40472338    -0.73100
Cu1733     Cu  0.00425823  0.88284807  0.43171237     1.04600
Cu1734     Cu  0.98420327  0.95810573  0.42761875     1.04300
C1735       C  0.99472068  0.90378750  0.39970661     0.93200
C1736       C  0.99372865  0.93246591  0.45973239     0.92400
C1737       C  0.93452432  0.89095639  0.43060735     0.84500
C1738       C  0.05279992  0.95533703  0.42838751     0.90800
O1739       O  0.94160990  0.96699413  0.55524646    -0.73000
O1740       O  0.03403670  0.01207243  0.55239927    -0.74000
O1741       O  0.98749926  0.97877092  0.53157006    -0.62600
O1742       O  0.98751987  0.00561420  0.57597565    -0.71000
O1743       O  0.00526125  0.93570447  0.58141993    -0.70500
O1744       O  0.00487670  0.90738121  0.53549499    -0.61800
O1745       O  0.04989283  0.94054709  0.55704549    -0.74300
O1746       O  0.96060785  0.89700058  0.56003022    -0.73100
Cu1747     Cu  0.98695534  0.99329040  0.55365723     1.04600
Cu1748     Cu  0.00563594  0.91765853  0.55871305     1.04300
C1749       C  0.93691189  0.92389952  0.55783044     0.93200
C1750       C  0.05664872  0.98252987  0.55424580     0.92400
C1751       C  0.99638257  0.93994738  0.52629065     0.84500
C1752       C  0.99726043  0.97622072  0.58588405     0.90800
O1753       O  0.22323463  0.63811586  0.40906566    -0.73000
O1754       O  0.22515399  0.62051701  0.45414812    -0.74000
O1755       O  0.27050480  0.65136627  0.43198682    -0.62600
O1756       O  0.17886296  0.60279139  0.43087923    -0.71000
O1757       O  0.19863615  0.53239974  0.42758187    -0.70500
O1758       O  0.28750637  0.57943418  0.42891851    -0.61800
O1759       O  0.24369791  0.54919007  0.45163423    -0.74300
O1760       O  0.24229224  0.56806950  0.40482324    -0.73100
Cu1761     Cu  0.22371121  0.63058586  0.43161840     1.04600
Cu1762     Cu  0.24354804  0.55467149  0.42809922     1.04300
C1763       C  0.23318886  0.60757358  0.39968979     0.93200
C1764       C  0.23471128  0.58293125  0.46018125     0.92400
C1765       C  0.29343096  0.62213485  0.43062824     0.84500
C1766       C  0.17473786  0.55929215  0.42910612     0.90800
O1767       O  0.21486094  0.50410927  0.55332547    -0.73000
O1768       O  0.30429618  0.55925097  0.55567381    -0.74000
O1769       O  0.26103431  0.51705837  0.57698134    -0.62600
O1770       O  0.25925081  0.54101438  0.53209903    -0.71000
O1771       O  0.23789772  0.61031030  0.53549461    -0.70500
O1772       O  0.24071112  0.58629321  0.58200167    -0.61800
O1773       O  0.28232156  0.62765586  0.55971865    -0.74300
O1774       O  0.19564749  0.57399960  0.55784048    -0.73100
Cu1775     Cu  0.26066915  0.52797204  0.55441889     1.04600
Cu1776     Cu  0.23847380  0.60202302  0.55895225     1.04300
C1777       C  0.19098434  0.53144604  0.55508208     0.93200
C1778       C  0.30710125  0.60294870  0.55771163     0.92400
C1779       C  0.25108265  0.54686748  0.58659761     0.84500
C1780       C  0.24831952  0.57843885  0.52653134     0.90800
O1781       O  0.43956290  0.72681486  0.55677017    -0.73000
O1782       O  0.53264953  0.77149090  0.55358254    -0.74000
O1783       O  0.48498107  0.74101030  0.53273223    -0.62600
O1784       O  0.48668689  0.76401678  0.57742189    -0.71000
O1785       O  0.50387046  0.69285750  0.58229546    -0.70500
O1786       O  0.50177434  0.66889840  0.53599675    -0.61800
O1787       O  0.54759200  0.69932787  0.55754059    -0.74300
O1788       O  0.45884007  0.65694879  0.56077009    -0.73100
Cu1789     Cu  0.48525085  0.75338149  0.55500036     1.04600
Cu1790     Cu  0.50351850  0.67706900  0.55931611     1.04300
C1791       C  0.43492577  0.68347067  0.55918469     0.93200
C1792       C  0.55495816  0.74124447  0.55509911     0.92400
C1793       C  0.49319744  0.70231871  0.52715440     0.84500
C1794       C  0.49603453  0.73331416  0.58692976     0.90800
O1795       O  0.52774797  0.74209589  0.42825045    -0.73000
O1796       O  0.43717530  0.70246463  0.42899826    -0.74000
O1797       O  0.48183204  0.73097296  0.45188565    -0.62600
O1798       O  0.48418876  0.70894466  0.40548695    -0.71000
O1799       O  0.49985873  0.63706040  0.41045414    -0.70500
O1800       O  0.49700967  0.65819571  0.45529420    -0.61800
O1801       O  0.45127897  0.62978234  0.43314286    -0.74300
O1802       O  0.54479450  0.67100730  0.43249452    -0.73100
Cu1803     Cu  0.48220866  0.72365057  0.42848932     1.04600
Cu1804     Cu  0.49880689  0.64648946  0.43296669     1.04300
C1805       C  0.55080030  0.71402568  0.43047534     0.93200
C1806       C  0.42944593  0.66049454  0.43121053     0.92400
C1807       C  0.48934394  0.69721721  0.46081825     0.84500
C1808       C  0.49233069  0.66861520  0.40087901     0.90800
O1809       O  0.24645030  0.86380468  0.95085971    -0.73000
O1810       O  0.24523368  0.88055213  0.90582241    -0.74000
O1811       O  0.20021114  0.84576303  0.92741658    -0.62600
O1812       O  0.29250451  0.89220111  0.92876231    -0.71000
O1813       O  0.30841743  0.82020758  0.92567186    -0.70500
O1814       O  0.21963422  0.77527741  0.92484321    -0.61800
O1815       O  0.26266703  0.80909784  0.90188791    -0.74300
O1816       O  0.26506484  0.79241550  0.94886833    -0.73100
Cu1817     Cu  0.24540279  0.87302568  0.92833780     1.04600
Cu1818     Cu  0.26445074  0.79666872  0.92521832     1.04300
C1819       C  0.25645250  0.82686341  0.95719081     0.93200
C1820       C  0.25413284  0.84883580  0.89671353     0.92400
C1821       C  0.19571866  0.80220851  0.92569194     0.84500
C1822       C  0.31518671  0.86251716  0.92720922     0.90800
O1823       O  0.25055232  0.86982118  0.03254701    -0.73000
O1824       O  0.25129510  0.84937498  0.07955351    -0.74000
O1825       O  0.29493160  0.88595855  0.05701847    -0.62600
O1826       O  0.20602471  0.83998382  0.05518030    -0.71000
O1827       O  0.22244906  0.76823609  0.05156706    -0.70500
O1828       O  0.31502599  0.81583239  0.05386173    -0.61800
O1829       O  0.26954505  0.77915044  0.07510418    -0.74300
O1830       O  0.26952273  0.79878242  0.03006103    -0.73100
Cu1831     Cu  0.25017046  0.86380913  0.05622116     1.04600
Cu1832     Cu  0.26981301  0.78806103  0.05255129     1.04300
C1833       C  0.25979483  0.83622999  0.02397003     0.93200
C1834       C  0.26027708  0.80968334  0.08463437     0.92400
C1835       C  0.31903908  0.85942354  0.05567742     0.84500
C1836       C  0.19956965  0.79765360  0.05302559     0.90800
O1837       O  0.74522693  0.62698341  0.95471998    -0.73000
O1838       O  0.74307941  0.64075569  0.90977692    -0.74000
O1839       O  0.69853148  0.60738517  0.93194345    -0.62600
O1840       O  0.79079054  0.65407767  0.93231861    -0.71000
O1841       O  0.80684235  0.58125345  0.93061537    -0.70500
O1842       O  0.71779262  0.53703323  0.92864191    -0.61800
O1843       O  0.76258866  0.57063240  0.90624089    -0.74300
O1844       O  0.76150547  0.55427777  0.95307060    -0.73100
Cu1845     Cu  0.74370212  0.63474196  0.93227352     1.04600
Cu1846     Cu  0.76267688  0.55818500  0.92953197     1.04300
C1847       C  0.75355463  0.58945159  0.96118721     0.93200
C1848       C  0.75344892  0.60969280  0.90074242     0.92400
C1849       C  0.69393303  0.56388519  0.93031682     0.84500
C1850       C  0.81329704  0.62394940  0.93150098     0.90800
O1851       O  0.81085456  0.57738140  0.05623509    -0.73000
O1852       O  0.72118924  0.52127444  0.05440869    -0.74000
O1853       O  0.76504731  0.55824526  0.03311989    -0.62600
O1854       O  0.76818192  0.53394291  0.07745292    -0.71000
O1855       O  0.74542863  0.60078111  0.08290602    -0.70500
O1856       O  0.74510057  0.62850323  0.03650473    -0.61800
O1857       O  0.70178335  0.59162366  0.05814882    -0.74300
O1858       O  0.78869032  0.64473677  0.06131846    -0.73100
Cu1859     Cu  0.76720723  0.54547565  0.05520057     1.04600
Cu1860     Cu  0.74470192  0.61900215  0.05994341     1.04300
C1861       C  0.81367328  0.62085478  0.05884092     0.93200
C1862       C  0.69729216  0.54886689  0.05581188     0.92400
C1863       C  0.75423320  0.59573203  0.02757896     0.84500
C1864       C  0.75596899  0.56117835  0.08729651     0.90800
O1865       O  0.45401061  0.96507401  0.92599678    -0.73000
O1866       O  0.54320288  0.01042585  0.92623631    -0.74000
O1867       O  0.50187982  0.97152713  0.90306015    -0.62600
O1868       O  0.49538764  0.99847397  0.94923591    -0.71000
O1869       O  0.51294041  0.92762002  0.95374393    -0.70500
O1870       O  0.51957951  0.90185681  0.90910056    -0.61800
O1871       O  0.56189951  0.94081096  0.93169601    -0.74300
O1872       O  0.47021720  0.89395787  0.93124929    -0.73100
Cu1873     Cu  0.49817565  0.98891253  0.92589804     1.04600
Cu1874     Cu  0.51688737  0.91368283  0.93157234     1.04300
C1875       C  0.44757445  0.92308582  0.92880754     0.93200
C1876       C  0.56672112  0.98396331  0.92937801     0.92400
C1877       C  0.51062940  0.93097828  0.89890145     0.84500
C1878       C  0.50288069  0.96618186  0.95877503     0.90800
O1879       O  0.53750691  0.04702132  0.05325685    -0.73000
O1880       O  0.44565200  0.99837278  0.05467813    -0.74000
O1881       O  0.48989689  0.03692392  0.07629705    -0.62600
O1882       O  0.49207432  0.01448185  0.03143234    -0.71000
O1883       O  0.50949388  0.94304403  0.03486875    -0.70500
O1884       O  0.50983209  0.96745702  0.08135211    -0.61800
O1885       O  0.46547888  0.92901561  0.05951086    -0.74300
O1886       O  0.55416093  0.97541051  0.05691604    -0.73100
Cu1887     Cu  0.49058196  0.02663447  0.05378706     1.04600
Cu1888     Cu  0.51028644  0.95122568  0.05833345     1.04300
C1889       C  0.56047419  0.01789621  0.05487483     0.93200
C1890       C  0.44139900  0.95507847  0.05711991     0.92400
C1891       C  0.50028818  0.00723750  0.08593384     0.84500
C1892       C  0.50086085  0.97602316  0.02582193     0.90800
O1893       O  0.01841540  0.66508502  0.95236128    -0.73000
O1894       O  0.01746303  0.64271367  0.90760031    -0.74000
O1895       O  0.06342127  0.68067788  0.92851489    -0.62600
O1896       O  0.97161437  0.63268089  0.93138502    -0.71000
O1897       O  0.95499008  0.70422463  0.92702964    -0.70500
O1898       O  0.04340144  0.75047929  0.92455366    -0.61800
O1899       O  0.99932813  0.71346703  0.90274117    -0.74300
O1900       O  0.99956305  0.73601978  0.94905480    -0.73100
Cu1901     Cu  0.01848029  0.65279162  0.93007221     1.04600
Cu1902     Cu  0.99878664  0.72855076  0.92568480     1.04300
C1903       C  0.00915263  0.70323144  0.95794823     0.93200
C1904       C  0.00778311  0.67330475  0.89811721     0.92400
C1905       C  0.06744753  0.72423750  0.92649624     0.84500
C1906       C  0.94879978  0.66195563  0.92959213     0.90800
O1907       O  0.00987875  0.71301984  0.07943457    -0.73000
O1908       O  0.00892581  0.68503872  0.03340508    -0.74000
O1909       O  0.05476528  0.71685328  0.05503160    -0.62600
O1910       O  0.96480078  0.67584263  0.05807216    -0.71000
O1911       O  0.94628191  0.74581433  0.05295803    -0.70500
O1912       O  0.03994005  0.78867948  0.05037618    -0.61800
O1913       O  0.99241600  0.75679597  0.02928555    -0.74300
O1914       O  0.99257440  0.78342671  0.07384536    -0.73100
Cu1915     Cu  0.01008688  0.69523687  0.05667620     1.04600
Cu1916     Cu  0.99219227  0.77121123  0.05146604     1.04300
C1917       C  0.00167848  0.75361424  0.08375462     0.93200
C1918       C  0.00019880  0.71741794  0.02414378     0.92400
C1919       C  0.06227125  0.75866537  0.05238496     0.84500
C1920       C  0.94128285  0.70271793  0.05556271     0.90800
C1921       C  0.97980686  0.72488913  0.98140254    -0.05800
C1922       C  0.00803613  0.70770841  0.97489661     0.00100
C1923       C  0.03313120  0.69165850  0.98464669    -0.08500
C1924       C  0.02879935  0.69338404  0.00074882    -0.05800
C1925       C  0.00072326  0.71108362  0.00725655     0.00100
C1926       C  0.97552821  0.72682252  0.99750061    -0.08400
C1927       C  0.94397115  0.74472081  0.00389760     0.62000
H1928       H  0.96084793  0.73623731  0.97370449     0.12700
H1929       H  0.04777171  0.68207733  0.00844548     0.12700
C1930       C  0.06479678  0.67426855  0.97822342     0.62300
F1931       F  0.92111164  0.74976378  0.99238437    -0.22900
F1932       F  0.94838312  0.78733554  0.01067740    -0.20200
F1933       F  0.93205455  0.71420319  0.01477361    -0.19900
F1934       F  0.07661342  0.70533858  0.96747751    -0.20000
F1935       F  0.06059889  0.63183530  0.97127447    -0.20300
F1936       F  0.08760460  0.66901163  0.98974513    -0.23000
C1937       C  0.49424259  0.93079640  0.98449198    -0.05800
C1938       C  0.50001988  0.97130454  0.97583960     0.00100
C1939       C  0.50510879  0.01332818  0.98374066    -0.08500
C1940       C  0.50602929  0.01253547  0.00002604    -0.05800
C1941       C  0.50110844  0.97176258  0.00867432     0.00100
C1942       C  0.49428226  0.93026015  0.00077568    -0.08400
C1943       C  0.48616373  0.88590572  0.00933716     0.62000
H1944       H  0.48969157  0.89904276  0.97832289     0.12700
H1945       H  0.51068323  0.04425014  0.00619446     0.12700
C1946       C  0.50989800  0.05869701  0.97518497     0.62300
F1947       F  0.47658504  0.85136506  0.99932949    -0.22900
F1948       F  0.46136930  0.89381324  0.01960800    -0.20200
F1949       F  0.51271900  0.87012079  0.01733305    -0.19900
F1950       F  0.48257271  0.06947295  0.96685799    -0.20000
F1951       F  0.53567380  0.05520009  0.96522020    -0.20300
F1952       F  0.51579646  0.09485755  0.98521254    -0.23000
C1953       C  0.61791415  0.49017053  0.06404815    -0.05800
C1954       C  0.59494839  0.03151218  0.05484157     0.00100
C1955       C  0.60697027  0.07183227  0.04754467    -0.08500
C1956       C  0.64017596  0.07988182  0.04790281    -0.05800
C1957       C  0.66368898  0.53317660  0.05470513     0.00100
C1958       C  0.65113461  0.49793771  0.06423593    -0.08400
C1959       C  0.67243564  0.47034069  0.07513332     0.62000
H1960       H  0.60807594  0.46329452  0.07134747     0.12700
H1961       H  0.64974725  0.11078992  0.04258449     0.12700
C1962       C  0.58529803  0.10636647  0.03939790     0.62300
F1963       F  0.65505391  0.43988875  0.08418706    -0.22900
F1964       F  0.68854058  0.49995213  0.08493437    -0.20200
F1965       F  0.69435005  0.44507377  0.06667804    -0.19900
F1966       F  0.60251569  0.14082137  0.03204539    -0.20000
F1967       F  0.56540735  0.12716948  0.05010165    -0.20300
F1968       F  0.56714091  0.08422708  0.02828684    -0.23000
C1969       C  0.87094136  0.61949100  0.05127434    -0.05800
C1970       C  0.84585690  0.64395066  0.05828573     0.00100
C1971       C  0.85213025  0.68957944  0.06382751    -0.08500
C1972       C  0.88335157  0.70786944  0.06234094    -0.05800
C1973       C  0.90840423  0.68262596  0.05567768     0.00100
C1974       C  0.90190275  0.63786091  0.04972705    -0.08400
C1975       C  0.92723278  0.60898794  0.04158487     0.62000
H1976       H  0.86615365  0.58528263  0.04690437     0.12700
H1977       H  0.88869399  0.74196275  0.06667720     0.12700
C1978       C  0.82661274  0.71921663  0.07151183     0.62300
F1979       F  0.91391034  0.57229253  0.03365874    -0.22900
F1980       F  0.94847041  0.59124733  0.05236438    -0.20200
F1981       F  0.94362098  0.63553092  0.03090492    -0.19900
F1982       F  0.81334062  0.69562856  0.08388312    -0.20000
F1983       F  0.80304387  0.73049584  0.06088495    -0.20300
F1984       F  0.83895781  0.76015084  0.07715470    -0.23000
C1985       C  0.86781415  0.61388225  0.94193160    -0.05800
C1986       C  0.84745650  0.63681753  0.93143070     0.00100
C1987       C  0.86074034  0.66519095  0.91977174    -0.08500
C1988       C  0.89408596  0.67107202  0.91942511    -0.05800
C1989       C  0.91454597  0.64877417  0.93006229     0.00100
C1990       C  0.90129200  0.61935981  0.94149458    -0.08400
C1991       C  0.92210184  0.59486077  0.95338355     0.62000
H1992       H  0.85711915  0.59116808  0.95047410     0.12700
H1993       H  0.90460625  0.69321723  0.91066852     0.12700
C1994       C  0.84000712  0.68728390  0.90732352     0.62300
F1995       F  0.90404489  0.57002781  0.96394001    -0.22900
F1996       F  0.93993206  0.62684085  0.96150696    -0.20200
F1997       F  0.94242624  0.56431367  0.94602108    -0.19900
F1998       F  0.81853354  0.71758429  0.91399751    -0.20000
F1999       F  0.82342101  0.65341602  0.89946936    -0.20300
F2000       F  0.85799674  0.71163409  0.89661647    -0.23000
C2001       C  0.65679414  0.00721050  0.92757908    -0.05800
C2002       C  0.66137838  0.54260301  0.93040236     0.00100
C2003       C  0.63503413  0.56079445  0.93875767    -0.08500
C2004       C  0.60048817  0.05160475  0.93562928    -0.05800
C2005       C  0.59909264  0.00527775  0.93075011     0.00100
C2006       C  0.62789757  0.98238693  0.92683279    -0.08400
C2007       C  0.62834232  0.93247177  0.92149553     0.62000
H2008       H  0.67873702  0.98989660  0.92435348     0.12700
H2009       H  0.58545044  0.55029862  0.94468887     0.12700
C2010       C  0.63736395  0.60518620  0.94799390     0.62300
F2011       F  0.65860453  0.91839082  0.91699891    -0.22900
F2012       F  0.60806982  0.92718814  0.90895365    -0.20200
F2013       F  0.61863960  0.90390018  0.93345639    -0.19900
F2014       F  0.64210609  0.64207357  0.93806575    -0.20000
F2015       F  0.66250549  0.60227352  0.95838845    -0.20300
F2016       F  0.60978802  0.61379846  0.95638754    -0.23000
C2017       C  0.73869071  0.55919893  0.00325579    -0.05800
C2018       C  0.75166344  0.59814975  0.01062814     0.00100
C2019       C  0.76587788  0.63345350  0.00174781    -0.08500
C2020       C  0.76658853  0.62840860  0.98558541    -0.05800
C2021       C  0.75417362  0.58899347  0.97822511     0.00100
C2022       C  0.73979469  0.55378364  0.98713146    -0.08400
C2023       C  0.72531872  0.51120546  0.97971829     0.62000
H2024       H  0.72820799  0.53231001  0.01037008     0.12700
H2025       H  0.77722643  0.65522470  0.97849973     0.12700
C2026       C  0.78127346  0.67505709  0.00931001     0.62300
F2027       F  0.71036104  0.48316606  0.99050916    -0.22900
F2028       F  0.74910957  0.48559275  0.97267117    -0.20200
F2029       F  0.70277907  0.52411443  0.96877917    -0.19900
F2030       F  0.80507264  0.66066427  0.01939232    -0.20000
F2031       F  0.75846760  0.69971515  0.01741470    -0.20300
F2032       F  0.79490624  0.70440601  0.99849927    -0.23000
C2033       C  0.14367610  0.81784613  0.04589634    -0.05800
C2034       C  0.16497841  0.78480589  0.05212858     0.00100
C2035       C  0.15226186  0.74387555  0.05858777    -0.08500
C2036       C  0.11883127  0.73737372  0.05832197    -0.05800
C2037       C  0.09733550  0.77038186  0.05207097     0.00100
C2038       C  0.11018645  0.81164995  0.04573241    -0.08400
C2039       C  0.08911332  0.84920877  0.03879375     0.62000
H2040       H  0.15362636  0.84948981  0.04124875     0.12700
H2041       H  0.10919476  0.70602422  0.06332129     0.12700
C2042       C  0.17357171  0.70803042  0.06633051     0.62300
F2043       F  0.10688675  0.88512293  0.03264201    -0.22900
F2044       F  0.06950789  0.86742887  0.05013450    -0.20200
F2045       F  0.07067397  0.83111730  0.02698181    -0.19900
F2046       F  0.19181541  0.72863065  0.07774847    -0.20000
F2047       F  0.19348992  0.68819568  0.05544196    -0.20300
F2048       F  0.15600655  0.67308067  0.07320379    -0.23000
C2049       C  0.35513746  0.92177910  0.04698260    -0.05800
C2050       C  0.35121645  0.88134862  0.05584752     0.00100
C2051       C  0.37631891  0.86682689  0.06572587    -0.08500
C2052       C  0.40482927  0.89278905  0.06603830    -0.05800
C2053       C  0.40900004  0.93312898  0.05704241     0.00100
C2054       C  0.38350178  0.94803188  0.04734927    -0.08400
C2055       C  0.38614201  0.99075885  0.03718846     0.62000
H2056       H  0.33536898  0.93285726  0.03968990     0.12700
H2057       H  0.42433146  0.88158793  0.07346888     0.12700
C2058       C  0.37260185  0.82519639  0.07628766     0.62300
F2059       F  0.35932427  0.99699715  0.02798092    -0.22900
F2060       F  0.41237563  0.98690243  0.02751630    -0.20200
F2061       F  0.38932160  0.02944470  0.04638125    -0.19900
F2062       F  0.36920592  0.78576064  0.06749421    -0.20000
F2063       F  0.34588298  0.83072992  0.08555095    -0.20300
F2064       F  0.39886724  0.81921267  0.08588052    -0.23000
C2065       C  0.35676550  0.92045181  0.93334319    -0.05800
C2066       C  0.34952120  0.87666375  0.92742561     0.00100
C2067       C  0.37517849  0.84767770  0.92227772    -0.08500
C2068       C  0.40664321  0.86457668  0.92302919    -0.05800
C2069       C  0.41364701  0.90829682  0.92886548     0.00100
C2070       C  0.38836088  0.93667701  0.93439543    -0.08400
C2071       C  0.39440753  0.98330520  0.94187205     0.62000
H2072       H  0.33732190  0.94203120  0.93737718     0.12700
H2073       H  0.42637922  0.84357570  0.91897026     0.12700
C2074       C  0.37034239  0.79891444  0.91612471     0.62300
F2075       F  0.36723877  0.00054894  0.94898566    -0.22900
F2076       F  0.40384340  0.01492572  0.93076091    -0.20200
F2077       F  0.41793654  0.97916399  0.95308202    -0.19900
F2078       F  0.34903254  0.79921667  0.90388485    -0.20000
F2079       F  0.35901013  0.77068292  0.92783415    -0.20300
F2080       F  0.39856061  0.77956612  0.91077751    -0.23000
C2081       C  0.12457781  0.72112043  0.91890307    -0.05800
C2082       C  0.09993557  0.74515355  0.92632354     0.00100
C2083       C  0.10658969  0.78896611  0.93302023    -0.08500
C2084       C  0.13801899  0.80627515  0.93235764    -0.05800
C2085       C  0.16284722  0.78209439  0.92507137     0.00100
C2086       C  0.15579968  0.73909166  0.91779355    -0.08400
C2087       C  0.18046343  0.71235134  0.90844640     0.62000
H2088       H  0.11896748  0.68821815  0.91370868     0.12700
H2089       H  0.14350741  0.83901035  0.93767532     0.12700
C2090       C  0.08100512  0.81749441  0.94110836     0.62300
F2091       F  0.16663882  0.67695594  0.90006196    -0.22900
F2092       F  0.20296366  0.69286495  0.91825096    -0.20200
F2093       F  0.19537419  0.74148864  0.89798397    -0.19900
F2094       F  0.06526414  0.79081608  0.95199147    -0.20000
F2095       F  0.05929436  0.83407939  0.93033638    -0.20300
F2096       F  0.09383839  0.85512800  0.94871855    -0.23000
C2097       C  0.23178543  0.84625421  0.98219350    -0.05800
C2098       C  0.25769803  0.82609782  0.97431575     0.00100
C2099       C  0.28526350  0.81266448  0.98273225    -0.08500
C2100       C  0.28536956  0.81864291  0.99891004    -0.05800
C2101       C  0.25927890  0.83840577  0.00681620     0.00100
C2102       C  0.23201792  0.85268208  0.99832494    -0.08400
C2103       C  0.20287547  0.87305060  0.00624453     0.62000
H2104       H  0.21116811  0.85718120  0.97549811     0.12700
H2105       H  0.30594787  0.80758017  0.00560802     0.12700
C2106       C  0.31476953  0.79369584  0.97468192     0.62300
F2107       F  0.17835338  0.88218093  0.99587425    -0.22900
F2108       F  0.21102366  0.91405780  0.01334042    -0.20200
F2109       F  0.19150608  0.84234239  0.01720300    -0.19900
F2110       F  0.32529595  0.82485169  0.96363705    -0.20000
F2111       F  0.30752940  0.75228870  0.96761972    -0.20300
F2112       F  0.33963984  0.78584487  0.98497303    -0.23000
C2113       C  0.50932958  0.73257109  0.50182980    -0.05800
C2114       C  0.49312683  0.69821520  0.51024210     0.00100
C2115       C  0.47440791  0.66525178  0.50243419    -0.08500
C2116       C  0.47338274  0.66695474  0.48620808    -0.05800
C2117       C  0.48928007  0.70153900  0.47776508     0.00100
C2118       C  0.50783412  0.73476083  0.48559737    -0.08400
C2119       C  0.52683269  0.77111694  0.47688682     0.62000
H2120       H  0.52308531  0.75784166  0.50813874     0.12700
H2121       H  0.46031709  0.64112809  0.47999266     0.12700
C2122       C  0.45470074  0.62971286  0.51116411     0.62300
F2123       F  0.54507184  0.79785299  0.48677330    -0.22900
F2124       F  0.50619096  0.80006194  0.46893167    -0.20200
F2125       F  0.54731980  0.75006868  0.46649981    -0.19900
F2126       F  0.43422700  0.65174347  0.52133594    -0.20000
F2127       F  0.47471241  0.60048602  0.51937299    -0.20300
F2128       F  0.43634433  0.60316586  0.50126626    -0.23000
C2129       C  0.36453924  0.59939559  0.56419689    -0.05800
C2130       C  0.33920223  0.62514738  0.55807419     0.00100
C2131       C  0.34514598  0.67072384  0.55257067    -0.08500
C2132       C  0.37645383  0.68863622  0.55356912    -0.05800
C2133       C  0.40205373  0.66273506  0.55963110     0.00100
C2134       C  0.39581085  0.61694261  0.56517091    -0.08400
C2135       C  0.42145955  0.58564222  0.57211692     0.62000
H2136       H  0.35951021  0.56484843  0.56826635     0.12700
H2137       H  0.38125700  0.72307766  0.54932659     0.12700
C2138       C  0.31905253  0.70016812  0.54517378     0.62300
F2139       F  0.40876763  0.54566226  0.57841318    -0.22900
F2140       F  0.43725679  0.60827908  0.58389693    -0.20200
F2141       F  0.44293428  0.57260722  0.56075750    -0.19900
F2142       F  0.29704775  0.71332252  0.55626631    -0.20000
F2143       F  0.30378858  0.67553030  0.53364773    -0.20300
F2144       F  0.33122733  0.73992446  0.53849873    -0.23000
C2145       C  0.34745676  0.61027375  0.44126323    -0.05800
C2146       C  0.32749217  0.63587400  0.43132890     0.00100
C2147       C  0.34112077  0.66877117  0.42118814    -0.08500
C2148       C  0.37455797  0.67482902  0.42138296    -0.05800
C2149       C  0.39471191  0.64897782  0.43126676     0.00100
C2150       C  0.38084519  0.61639474  0.44153127    -0.08400
C2151       C  0.40077376  0.58942053  0.45313914     0.62000
H2152       H  0.33651067  0.58495257  0.44881878     0.12700
H2153       H  0.38532624  0.69978541  0.41364407     0.12700
C2154       C  0.32066582  0.69604248  0.40984196     0.62300
F2155       F  0.38201134  0.56345536  0.46308119    -0.22900
F2156       F  0.41836068  0.61972569  0.46199511    -0.20200
F2157       F  0.42116044  0.55965036  0.44547617    -0.19900
F2158       F  0.29933828  0.72351960  0.41786331    -0.20000
F2159       F  0.30389581  0.66609028  0.40043189    -0.20300
F2160       F  0.33893213  0.72440165  0.40043404    -0.23000
C2161       C  0.26647706  0.56778770  0.48362593    -0.05800
C2162       C  0.23695120  0.58039520  0.47720250     0.00100
C2163       C  0.21160701  0.59480496  0.48701592    -0.08500
C2164       C  0.21683938  0.59568062  0.50309962    -0.05800
C2165       C  0.24629688  0.58268720  0.50953372     0.00100
C2166       C  0.27181116  0.56905838  0.49968654    -0.08400
C2167       C  0.30487573  0.55735851  0.50597055     0.62000
H2168       H  0.28563868  0.55784398  0.47587853     0.12700
H2169       H  0.19764222  0.60546501  0.51084612     0.12700
C2170       C  0.17886351  0.60780220  0.48064412     0.62300
F2171       F  0.32735716  0.55420673  0.49425057    -0.22900
F2172       F  0.30422544  0.51542988  0.51363821    -0.20200
F2173       F  0.31481233  0.59138405  0.51606823    -0.19900
F2174       F  0.16806131  0.57362779  0.47081043    -0.20000
F2175       F  0.18065188  0.64910529  0.47264182    -0.20300
F2176       F  0.15648949  0.61307864  0.49232450    -0.23000
C2177       C  0.11298300  0.96635516  0.56150009    -0.05800
C2178       C  0.09119651  0.99529276  0.55353916     0.00100
C2179       C  0.10175517  0.54005756  0.54808572    -0.08500
C2180       C  0.13488064  0.54847487  0.54821393    -0.05800
C2181       C  0.15723582  0.51589007  0.55375204     0.00100
C2182       C  0.14620919  0.97398328  0.56130762    -0.08400
C2183       C  0.16838371  0.94159617  0.57011922     0.62000
H2184       H  0.10372197  0.93743285  0.56807259     0.12700
H2185       H  0.14370502  0.58137868  0.54405800     0.12700
C2186       C  0.07938970  0.57684106  0.54161874     0.62300
F2187       F  0.15169901  0.90768849  0.57802911    -0.22900
F2188       F  0.18608243  0.96614435  0.58080405    -0.20200
F2189       F  0.18884464  0.91998552  0.55986142    -0.19900
F2190       F  0.06006323  0.59369914  0.55330283    -0.20000
F2191       F  0.06069538  0.55831450  0.52997270    -0.20300
F2192       F  0.09594013  0.61380168  0.53536513    -0.23000
C2193       C  0.13604873  0.50451733  0.44037317    -0.05800
C2194       C  0.14245496  0.53842091  0.42914245     0.00100
C2195       C  0.11967274  0.54747198  0.41740802    -0.08500
C2196       C  0.09079901  0.52245532  0.41745787    -0.05800
C2197       C  0.08431264  0.48831984  0.42867147     0.00100
C2198       C  0.11449997  0.95636924  0.43101700    -0.08400
C2199       C  0.11680572  0.90514740  0.43473213     0.62000
H2200       H  0.15412493  0.49764086  0.44909093     0.12700
H2201       H  0.07299325  0.52919906  0.40860490     0.12700
C2202       C  0.12639850  0.58216144  0.40461798     0.62300
F2203       F  0.14805082  0.89109926  0.43731750    -0.22900
F2204       F  0.10505517  0.87975506  0.42245278    -0.20200
F2205       F  0.09947943  0.89538482  0.44798263    -0.19900
F2206       F  0.15401340  0.56979901  0.39688108    -0.20000
F2207       F  0.13029521  0.62559434  0.41088415    -0.20300
F2208       F  0.10175396  0.58430994  0.39391311    -0.23000
C2209       C  0.00582445  0.97470487  0.50078837    -0.05800
C2210       C  0.99721903  0.93512090  0.50930406     0.00100
C2211       C  0.98712593  0.89504380  0.50143852    -0.08500
C2212       C  0.98536100  0.89658558  0.48521505    -0.05800
C2213       C  0.99362998  0.93638672  0.47673052     0.00100
C2214       C  0.00438505  0.97610803  0.48458060    -0.08400
C2215       C  0.01504945  0.01930824  0.47601220     0.62000
H2216       H  0.01361524  0.00501702  0.50701922     0.12700
H2217       H  0.97751382  0.86634630  0.47895048     0.12700
C2218       C  0.97761901  0.85134160  0.51000312     0.62300
F2219       F  0.02780591  0.05183816  0.48595186    -0.22900
F2220       F  0.98916423  0.03922567  0.46855053    -0.20200
F2221       F  0.03832231  0.00818141  0.46526137    -0.19900
F2222       F  0.94900809  0.37282530  0.51950108    -0.20000
F2223       F  0.00389066  0.83334494  0.51769581    -0.20300
F2224       F  0.95967527  0.33010559  0.49862679    -0.23000
C2225       C  0.85386142  0.83033727  0.43601662    -0.05800
C2226       C  0.83292391  0.86335837  0.42951719     0.00100
C2227       C  0.84566330  0.90404058  0.42295138    -0.08500
C2228       C  0.87890759  0.91039448  0.42337933    -0.05800
C2229       C  0.90001069  0.87796105  0.43019066     0.00100
C2230       C  0.88721368  0.83690690  0.43660802    -0.08400
C2231       C  0.90813765  0.80041032  0.44422833     0.62000
H2232       H  0.84372397  0.79904151  0.44077534     0.12700
H2233       H  0.88868742  0.94133768  0.41822175     0.12700
C2234       C  0.82470682  0.93975252  0.41490522     0.62300
F2235       F  0.89023261  0.76487858  0.45054488    -0.22900
F2236       F  0.92579430  0.81995987  0.45605606    -0.20200
F2237       F  0.92851606  0.78145324  0.43335678    -0.19900
F2238       F  0.80440049  0.96017805  0.42549678    -0.20000
F2239       F  0.80697965  0.91867582  0.40343194    -0.20300
F2240       F  0.84253600  0.97444011  0.40803514    -0.23000
C2241       C  0.58821145  0.77819912  0.42446998    -0.05800
C2242       C  0.58406938  0.73340712  0.43067149     0.00100
C2243       C  0.61090284  0.71101847  0.43751085    -0.08500
C2244       C  0.64073223  0.73372543  0.43733271    -0.05800
C2245       C  0.64470888  0.77821869  0.43100898     0.00100
C2246       C  0.61781172  0.80127988  0.42469058    -0.08400
C2247       C  0.62023764  0.84963471  0.41792484     0.62000
H2248       H  0.56778013  0.79554561  0.41937103     0.12700
H2249       H  0.66150855  0.71669636  0.44225145     0.12700
C2250       C  0.60840994  0.66395423  0.44523041     0.62300
F2251       F  0.59170257  0.86415186  0.41134731    -0.22900
F2252       F  0.64346310  0.85073827  0.40652502    -0.20200
F2253       F  0.62801794  0.88048293  0.42950734    -0.19900
F2254       F  0.60064100  0.63103067  0.43431694    -0.20000
F2255       F  0.58523735  0.66503288  0.45665536    -0.20300
F2256       F  0.63691049  0.65064295  0.45213515    -0.23000
C2257       C  0.63612826  0.79975139  0.54811847    -0.05800
C2258       C  0.65738036  0.76536765  0.55351540     0.00100
C2259       C  0.64479097  0.72367139  0.55939786    -0.08500
C2260       C  0.61140003  0.71805624  0.55964830    -0.05800
C2261       C  0.58990159  0.75248722  0.55435664     0.00100
C2262       C  0.60262952  0.79428529  0.54841286    -0.08400
C2263       C  0.58145424  0.83313897  0.54241712     0.62000
H2264       H  0.64612864  0.83167449  0.54376891     0.12700
H2265       H  0.60186507  0.68622859  0.56427265     0.12700
C2266       C  0.66619243  0.68587995  0.56597352     0.62300
F2267       F  0.59914729  0.86952734  0.53653323    -0.22900
F2268       F  0.56284104  0.85008874  0.55435668    -0.20200
F2269       F  0.56200964  0.81707527  0.53064756    -0.19900
F2270       F  0.68535750  0.70369834  0.57756569    -0.20000
F2271       F  0.68517242  0.66791077  0.55435041    -0.20300
F2272       F  0.64871975  0.64990733  0.57228189    -0.23000
C2273       C  0.84827243  0.89865162  0.56466016    -0.05800
C2274       C  0.84501028  0.85498019  0.55758309     0.00100
C2275       C  0.87227802  0.83487198  0.55047194    -0.08500
C2276       C  0.90147100  0.85904849  0.55089513    -0.05800
C2277       C  0.90442041  0.90293146  0.55767546     0.00100
C2278       C  0.87734756  0.92319313  0.56472533    -0.08400
C2279       C  0.87916669  0.96987619  0.57260274     0.62000
H2280       H  0.82755856  0.91397168  0.57013436     0.12700
H2281       H  0.92253474  0.84373250  0.54575223     0.12700
C2282       C  0.87088767  0.78881954  0.54214106     0.62300
F2283       F  0.85088621  0.98106988  0.58005076    -0.22900
F2284       F  0.88518514  0.00380383  0.56169753    -0.20200
F2285       F  0.90337151  0.96955481  0.58354513    -0.19900
F2286       F  0.84778393  0.79042284  0.53066348    -0.20000
F2287       F  0.86378961  0.75407628  0.55259851    -0.20300
F2288       F  0.89971219  0.77777192  0.53516492    -0.23000
C2289       C  0.77646872  0.81082897  0.50019921    -0.05800
C2290       C  0.74914678  0.82233293  0.50882207     0.00100
C2291       C  0.71950158  0.82909235  0.50124603    -0.08500
C2292       C  0.71838052  0.82496674  0.48508716    -0.05800
C2293       C  0.74558993  0.81313762  0.47647724     0.00100
C2294       C  0.77530337  0.80657405  0.48401364    -0.08400
C2295       C  0.80574830  0.79743803  0.47497535     0.62000
H2296       H  0.79875432  0.80493967  0.50632061     0.12700
H2297       H  0.69605715  0.83066381  0.47897295     0.12700
C2298       C  0.68889738  0.83764764  0.51022261     0.62300
F2299       F  0.83208683  0.79264763  0.48459545    -0.22900
F2300       F  0.81138275  0.83400277  0.46503939    -0.20200
F2301       F  0.80270627  0.75729160  0.46651664    -0.19900
F2302       F  0.69161537  0.87753392  0.51884201    -0.20000
F2303       F  0.68329874  0.80066356  0.51997778    -0.20300
F2304       F  0.66265737  0.84249575  0.50054919    -0.23000
C2305       C  0.98196412  0.62773330  0.87787946    -0.05800
C2306       C  0.00555812  0.65993292  0.88182789     0.00100
C2307       C  0.02918928  0.67241406  0.87100941    -0.08500
C2308       C  0.02860474  0.65158319  0.85637462    -0.05800
C2309       C  0.00510838  0.61895297  0.85230921     0.00100
C2310       C  0.98096795  0.60727040  0.86315072    -0.08400
C2311       C  0.95385619  0.57458637  0.85917516     0.62000
H2312       H  0.96448954  0.61828314  0.88659791     0.12700
H2313       H  0.04677880  0.66057206  0.84795217     0.12700
C2314       C  0.05521561  0.70668034  0.87513214     0.62300
F2315       F  0.93157279  0.57168082  0.87099343    -0.22900
F2316       F  0.96589481  0.53078820  0.85665630    -0.20200
F2317       F  0.93816925  0.58999447  0.84600827    -0.19900
F2318       F  0.07331630  0.68962575  0.88730166    -0.20000
F2319       F  0.04146945  0.74810737  0.87946771    -0.20300
F2320       F  0.07547742  0.71515829  0.86277548    -0.23000
C2321       C  0.98503412  0.47353903  0.63001196    -0.05800
C2322       C  0.99883146  0.51661598  0.63381056     0.00100
C2323       C  0.01495119  0.54168802  0.62200603    -0.08500
C2324       C  0.01492512  0.52383860  0.60684687    -0.05800
C2325       C  0.99951240  0.99121076  0.60238118     0.00100
C2326       C  0.01123135  0.96283623  0.61458417    -0.08400
C2327       C  0.02345143  0.91396722  0.61205053     0.62000
H2328       H  0.97317501  0.45382486  0.63897466     0.12700
H2329       H  0.98162840  0.05910955  0.59652286     0.12700
C2330       C  0.03248194  0.58653906  0.62517622     0.62300
F2331       F  0.03439676  0.89380239  0.62563115    -0.22900
F2332       F  0.04874945  0.91456187  0.60172786    -0.20200
F2333       F  0.99906084  0.88663499  0.60637709    -0.19900
F2334       F  0.05525537  0.57959282  0.63659902    -0.20000
F2335       F  0.01094942  0.62000409  0.62983208    -0.20300
F2336       F  0.04812272  0.60298804  0.61215288    -0.23000
C2337       C  0.02846087  0.56435475  0.75172840    -0.05800
C2338       C  0.00018776  0.55639249  0.76003442     0.00100
C2339       C  0.97084288  0.55131431  0.75208067    -0.08500
C2340       C  0.97083010  0.55500300  0.73584598    -0.05800
C2341       C  0.99905731  0.56389406  0.72756404     0.00100
C2342       C  0.02852339  0.56725824  0.73551507    -0.08400
C2343       C  0.05995128  0.57125598  0.72687140     0.62000
H2344       H  0.05059125  0.56844446  0.75812888     0.12700
H2345       H  0.94872783  0.55088839  0.72943047     0.12700
C2346       C  0.93968528  0.54393493  0.76073440     0.62300
F2347       F  0.08589960  0.57289027  0.73683366    -0.22900
F2348       F  0.06008318  0.61096834  0.71795660    -0.20200
F2349       F  0.06368130  0.53324370  0.71742298    -0.19900
F2350       F  0.93409014  0.58090065  0.77042933    -0.20000
F2351       F  0.94149344  0.50384831  0.76943013    -0.20300
F2352       F  0.91387860  0.54010615  0.75076367    -0.23000
C2353       C  0.75313597  0.60556496  0.85660616    -0.05800
C2354       C  0.75323499  0.65311909  0.85288342     0.00100
C2355       C  0.75609466  0.68566419  0.86498013    -0.08500
C2356       C  0.75713736  0.66922333  0.88030123    -0.05800
C2357       C  0.75533722  0.62179115  0.88402531     0.00100
C2358       C  0.75405955  0.58919094  0.87192780    -0.08400
C2359       C  0.75295719  0.53754813  0.87498904     0.62000
H2360       H  0.75213136  0.58072669  0.84731571     0.12700
H2361       H  0.75922342  0.69382629  0.88962497     0.12700
C2362       C  0.75754740  0.73735692  0.86199341     0.62300
F2363       F  0.74969297  0.51246190  0.86146637    -0.22900
F2364       F  0.72718527  0.52714046  0.88440641    -0.20200
F2365       F  0.78103949  0.52353968  0.88208835    -0.19900
F2366       F  0.73068420  0.75146512  0.85386866    -0.20000
F2367       F  0.78477243  0.74779751  0.85360239    -0.20300
F2368       F  0.75866749  0.76240920  0.87560693    -0.23000
C2369       C  0.86401474  0.67386668  0.80771712    -0.05800
C2370       C  0.84182207  0.63906306  0.80372336     0.00100
C2371       C  0.85377526  0.59514355  0.79933321    -0.08500
C2372       C  0.88711476  0.58765218  0.79961458    -0.05800
C2373       C  0.90906037  0.62224532  0.80386946     0.00100
C2374       C  0.89731954  0.66647911  0.80779743    -0.08400
C2375       C  0.91950069  0.70556863  0.81245214     0.62000
H2376       H  0.85510986  0.70746896  0.81097148     0.12700
H2377       H  0.89642540  0.55410361  0.79650080     0.12700
C2378       C  0.83194501  0.55619874  0.79423711     0.62300
F2379       F  0.90279557  0.74454752  0.81698302    -0.22900
F2380       F  0.93857055  0.71778994  0.80002297    -0.20200
F2381       F  0.93855342  0.69179737  0.82475151    -0.19900
F2382       F  0.81318749  0.57072846  0.78192887    -0.20000
F2383       F  0.81267040  0.54272383  0.80644463    -0.20300
F2384       F  0.84900447  0.51782634  0.78943968    -0.23000
C2385       C  0.75155414  0.78002972  0.62971380    -0.05800
C2386       C  0.75192561  0.73204738  0.63260695     0.00100
C2387       C  0.75134083  0.70132439  0.61991014    -0.08500
C2388       C  0.75082252  0.72004742  0.60486598    -0.05800
C2389       C  0.75126870  0.76807299  0.60197704     0.00100
C2390       C  0.75143276  0.79874890  0.61468991    -0.08400
C2391       C  0.75207925  0.85087050  0.61264615     0.62000
H2392       H  0.75126972  0.80336621  0.63946220     0.12700
H2393       H  0.75004536  0.69673223  0.59511734     0.12700
C2394       C  0.75185602  0.64920818  0.62200564     0.62300
F2395       F  0.75460849  0.87365509  0.62665853    -0.22900
F2396       F  0.72411250  0.86556291  0.60559436    -0.20200
F2397       F  0.77810853  0.86341640  0.60369680    -0.19900
F2398       F  0.72398917  0.63495236  0.62917415    -0.20000
F2399       F  0.77799272  0.63636151  0.63088997    -0.20300
F2400       F  0.75405211  0.62629570  0.60800147    -0.23000
C2401       C  0.84837173  0.60215439  0.67151817    -0.05800
C2402       C  0.84409332  0.64504881  0.67894939     0.00100
C2403       C  0.87046165  0.66476958  0.68694086    -0.08500
C2404       C  0.89986409  0.64090940  0.68701009    -0.05800
C2405       C  0.90398805  0.59819700  0.67958365     0.00100
C2406       C  0.87782391  0.57834180  0.67168128    -0.08400
C2407       C  0.88114000  0.53300791  0.66307721     0.62000
H2408       H  0.82828261  0.58719550  0.66543731     0.12700
H2409       H  0.92023638  0.65564574  0.69294865     0.12700
C2410       C  0.86792165  0.71019418  0.69562537     0.62300
F2411       F  0.85357969  0.52193781  0.65501396    -0.22900
F2412       F  0.88726197  0.49774616  0.67350182    -0.20200
F2413       F  0.90598444  0.53586961  0.65254056    -0.19900
F2414       F  0.84345348  0.70782212  0.70637792    -0.20000
F2415       F  0.86205947  0.74580824  0.68529049    -0.20300
F2416       F  0.89580862  0.72060823  0.70353525    -0.23000
C2417       C  0.73698885  0.72420703  0.73371126    -0.05800
C2418       C  0.74544030  0.68310970  0.72606607     0.00100
C2419       C  0.75247779  0.64307391  0.73481965    -0.08500
C2420       C  0.75219106  0.64643808  0.75104273    -0.05800
C2421       C  0.74478171  0.68803447  0.75868589     0.00100
C2422       C  0.73636455  0.72746286  0.74990185    -0.08400
C2423       C  0.72602789  0.77237829  0.75742698     0.62000
H2424       H  0.73106874  0.75430187  0.72680605     0.12700
H2425       H  0.75816250  0.61636925  0.75794619     0.12700
C2426       C  0.76099166  0.59749423  0.72721260     0.62300
F2427       F  0.71514740  0.80422048  0.74663440    -0.22900
F2428       F  0.75159988  0.79183351  0.76516314    -0.20200
F2429       F  0.70141071  0.76402201  0.76774700    -0.19900
F2430       F  0.78696394  0.60334940  0.71748854    -0.20000
F2431       F  0.73514157  0.58166138  0.71877119    -0.20300
F2432       F  0.76886016  0.56386139  0.73800485    -0.23000
C2433       C  0.47541151  0.74981995  0.62901123    -0.05800
C2434       C  0.49713590  0.78468293  0.63333960     0.00100
C2435       C  0.51947858  0.80120522  0.62227781    -0.08500
C2436       C  0.51896600  0.78216158  0.60729370    -0.05800
C2437       C  0.49782191  0.74656133  0.60329677     0.00100
C2438       C  0.47567121  0.73004138  0.61423223    -0.08400
C2439       C  0.45244437  0.69176393  0.61023423     0.62000
H2440       H  0.45830275  0.73740833  0.63745578     0.12700
H2441       H  0.53514011  0.79495688  0.59847333     0.12700
C2442       C  0.54420167  0.83762789  0.62621889     0.62300
F2443       F  0.43194660  0.68180016  0.62237254    -0.22900
F2444       F  0.46950737  0.65221139  0.60679752    -0.20200
F2445       F  0.43409705  0.70447068  0.59756410    -0.19900
F2446       F  0.56262341  0.82287528  0.63861338    -0.20000
F2447       F  0.52903079  0.87854803  0.62994571    -0.20300
F2448       F  0.56459312  0.84635339  0.61392748    -0.23000
C2449       C  0.61411980  0.79208887  0.67186758    -0.05800
C2450       C  0.59229357  0.76514430  0.68043219     0.00100
C2451       C  0.60384496  0.72657798  0.68894059    -0.08500
C2452       C  0.63684778  0.71672014  0.68854385    -0.05800
C2453       C  0.65851360  0.74406566  0.68012654     0.00100
C2454       C  0.64703768  0.78220231  0.67150038    -0.08400
C2455       C  0.66915764  0.81131130  0.66150937     0.62000
H2456       H  0.60510041  0.82130994  0.66529586     0.12700
H2457       H  0.64617026  0.68723123  0.69489866     0.12700
C2458       C  0.58186847  0.69644762  0.69864145     0.62300
F2459       F  0.65250135  0.84374887  0.65285882    -0.22900
F2460       F  0.68568996  0.78327290  0.65133443    -0.20200
F2461       F  0.69065981  0.83460276  0.67078740    -0.19900
F2462       F  0.56065506  0.67348256  0.68910727    -0.20000
F2463       F  0.56509386  0.72342094  0.70904986    -0.20300
F2464       F  0.59869469  0.66359581  0.70703254    -0.23000
C2465       C  0.48621580  0.91148987  0.85665676    -0.05800
C2466       C  0.50467401  0.87248209  0.85304008     0.00100
C2467       C  0.52664896  0.85503445  0.86399219    -0.08500
C2468       C  0.52849756  0.87639132  0.87857272    -0.05800
C2469       C  0.50957738  0.91513978  0.88245483     0.00100
C2470       C  0.48825300  0.93346952  0.87114572    -0.08400
C2471       C  0.46754152  0.97564052  0.87415649     0.62000
H2472       H  0.47040752  0.92511494  0.84779075     0.12700
H2473       H  0.54505765  0.86280401  0.88710151     0.12700
C2474       C  0.54883942  0.81524322  0.86003715     0.62300
F2475       F  0.44833379  0.98655503  0.86157932    -0.22900
F2476       F  0.48681284  0.01335545  0.87707232    -0.20200
F2477       F  0.44773359  0.96759249  0.88669731    -0.19900
F2478       F  0.56732693  0.82682098  0.84732533    -0.20000
F2479       F  0.53102539  0.77645231  0.85663597    -0.20300
F2480       F  0.56924096  0.80442692  0.87216884    -0.23000
C2481       C  0.59950229  0.74003030  0.81680424    -0.05800
C2482       C  0.59566875  0.78233729  0.80878914     0.00100
C2483       C  0.62198553  0.80000557  0.80027913    -0.08500
C2484       C  0.65090014  0.77490847  0.80023784    -0.05800
C2485       C  0.65452634  0.73252567  0.80807064     0.00100
C2486       C  0.62838380  0.71467649  0.81655812    -0.08400
C2487       C  0.63110454  0.66984173  0.82563105     0.62000
H2488       H  0.57941525  0.72658424  0.82329023     0.12700
H2489       H  0.67122720  0.78833928  0.79393211     0.12700
C2490       C  0.61971339  0.84439145  0.79092581     0.62300
F2491       F  0.60375127  0.66076225  0.83413661    -0.22900
F2492       F  0.65658651  0.67221834  0.83583544    -0.20200
F2493       F  0.63580826  0.63351470  0.81555028    -0.19900
F2494       F  0.61466031  0.88124398  0.80075381    -0.20000
F2495       F  0.59479644  0.84144009  0.78042777    -0.20300
F2496       F  0.64741488  0.85306841  0.78264288    -0.23000
C2497       C  0.52882683  0.83554318  0.75189241    -0.05800
C2498       C  0.50278115  0.81652180  0.76001258     0.00100
C2499       C  0.47569098  0.80107914  0.75173282    -0.08500
C2500       C  0.47565678  0.80554806  0.73551243    -0.05800
C2501       C  0.50160028  0.82494253  0.72740895     0.00100
C2502       C  0.52887166  0.83982945  0.73567799    -0.08400
C2503       C  0.55815582  0.85899371  0.72748994     0.62000
H2504       H  0.54917064  0.84774517  0.75846284     0.12700
H2505       H  0.45521064  0.79363928  0.72894026     0.12700
C2506       C  0.44673557  0.78099708  0.75992758     0.62300
F2507       F  0.58288530  0.86789708  0.73772635    -0.22900
F2508       F  0.55035686  0.89990384  0.72009678    -0.20200
F2509       F  0.56916929  0.82754785  0.71671277    -0.19900
F2510       F  0.43511395  0.81202793  0.77067388    -0.20000
F2511       F  0.45531653  0.74051192  0.76737897    -0.20300
F2512       F  0.42220565  0.77107568  0.74968967    -0.23000
C2513       C  0.28325399  0.00399331  0.62414213    -0.05800
C2514       C  0.25429149  0.99375517  0.63153436     0.00100
C2515       C  0.22799756  0.48532044  0.62340373    -0.08500
C2516       C  0.22695117  0.50519219  0.60850119    -0.05800
C2517       C  0.25150271  0.53383296  0.60306306     0.00100
C2518       C  0.28391603  0.02175650  0.60900597    -0.08400
C2519       C  0.31572568  0.03281890  0.60134772     0.62000
H2520       H  0.30537544  0.99836726  0.63043429     0.12700
H2521       H  0.20700637  0.49820289  0.60085882     0.12700
C2522       C  0.20006136  0.45640251  0.62903310     0.62300
F2523       F  0.34118001  0.02683054  0.61144045    -0.22900
F2524       F  0.29378763  0.61628878  0.60307448    -0.20200
F2525       F  0.32054613  0.00421546  0.58878946    -0.19900
F2526       F  0.18788268  0.47498982  0.64252375    -0.20000
F2527       F  0.21012725  0.41164516  0.63179627    -0.20300
F2528       F  0.17551731  0.45490074  0.61826546    -0.23000
C2529       C  0.11257764  0.54226966  0.68995221    -0.05800
C2530       C  0.09202214  0.51247918  0.68184975     0.00100
C2531       C  0.10750483  0.98107493  0.67229156    -0.08500
C2532       C  0.14085026  0.97539262  0.67194362    -0.05800
C2533       C  0.15932919  0.50125586  0.68050208     0.00100
C2534       C  0.14606693  0.53700392  0.68966520    -0.08400
C2535       C  0.16672990  0.56878192  0.69939237     0.62000
H2536       H  0.10204221  0.57023110  0.69650029     0.12700
H2537       H  0.15105550  0.94900056  0.66465172     0.12700
C2538       C  0.08662938  0.95174466  0.66189037     0.62300
F2539       F  0.14851294  0.59798137  0.70850206    -0.22900
F2540       F  0.18554843  0.59580208  0.68983879    -0.20200
F2541       F  0.18602410  0.54291751  0.70915353    -0.10300
F2542       F  0.06951310  0.98023235  0.65204978    -0.20000
F2543       F  0.06579343  0.92574844  0.67074587    -0.20300
F2544       F  0.10443044  0.92171592  0.65290084    -0.23000
C2545       C  0.35470491  0.87734952  0.66830270    -0.05800
C2546       C  0.34971581  0.91814495  0.67681926     0.00100
C2547       C  0.37500890  0.93556051  0.68606630    -0.08500
C2548       C  0.40404648  0.91080447  0.68663207    -0.05800
C2549       C  0.40856830  0.86948424  0.67842684     0.00100
C2550       C  0.38373428  0.85276298  0.66886618    -0.08400
C2551       C  0.38813112  0.81011004  0.65890842     0.62000
H2552       H  0.33538006  0.86450690  0.66117255     0.12700
H2553       H  0.42364350  0.92346565  0.69363161     0.12700
C2554       C  0.37141464  0.97922520  0.69559377     0.62300
F2555       F  0.36209097  0.80260966  0.64932790    -0.22900
F2556       F  0.39185839  0.77162499  0.66824826    -0.20200
F2557       F  0.41488101  0.81522077  0.64963796    -0.19900
F2558       F  0.34577250  0.97490807  0.70561193    -0.20000
F2559       F  0.36654052  0.01659329  0.68585771    -0.20300
F2560       F  0.39840606  0.98813566  0.70438748    -0.23000
C2561       C  0.27244274  0.90766409  0.85877428    -0.05800
C2562       C  0.24557425  0.89551516  0.85001737     0.00100
C2563       C  0.22210124  0.86564667  0.85650358    -0.08500
C2564       C  0.22709796  0.84802224  0.87151164    -0.05800
C2565       C  0.25409335  0.86008953  0.88015219     0.00100
C2566       C  0.27696020  0.89082864  0.87385813    -0.08400
C2567       C  0.30582724  0.90624957  0.88313923     0.62000
H2568       H  0.29009613  0.93032573  0.85363777     0.12700
H2569       H  0.20937193  0.82590824  0.87686703     0.12700
C2570       C  0.19120935  0.85400568  0.84805385     0.62300
F2571       F  0.32692393  0.93192147  0.87427265    -0.22900
F2572       F  0.32203855  0.86810126  0.88868630    -0.20200
F2573       F  0.29602829  0.93310916  0.89545331    -0.19900
F2574       F  0.19734950  0.82371623  0.83608818    -0.20000
F2575       F  0.17740599  0.89384250  0.84217903    -0.20300
F2576       F  0.16914511  0.83339283  0.85781394    -0.23000
C2577       C  0.38743969  0.85066558  0.81376956    -0.05800
C2578       C  0.40845819  0.87637157  0.80432057     0.00100
C2579       C  0.39542518  0.90892201  0.79371857    -0.08500
C2580       C  0.36191562  0.91493359  0.79324995    -0.05800
C2581       C  0.34117817  0.88927385  0.80276386     0.00100
C2582       C  0.35404699  0.85657090  0.81320472    -0.08400
C2583       C  0.33268160  0.82932928  0.82409798     0.62000
H2584       H  0.39748913  0.82580288  0.82182608     0.12700
H2585       H  0.35148933  0.94049977  0.78554629     0.12700
C2586       C  0.41640169  0.93680399  0.78281902     0.62300
F2587       F  0.35014920  0.80098683  0.83391388    -0.22900
F2588       F  0.31217703  0.80189842  0.81560396    -0.20200
F2589       F  0.31497343  0.85927314  0.83311903    -0.19900
F2590       F  0.43540755  0.90758609  0.77414633    -0.20000
F2591       F  0.43558261  0.96625558  0.79126923    -0.20300
F2592       F  0.39844220  0.96329730  0.77262784    -0.23000
C2593       C  0.13380969  0.97848275  0.79495653    -0.05800
C2594       C  0.15632100  0.98969598  0.80639222     0.00100
C2595       C  0.13142596  0.46738193  0.79838795    -0.08500
C2596       C  0.10168883  0.49044908  0.79842805    -0.05800
C2597       C  0.09537649  0.52747321  0.80842833     0.00100
C2598       C  0.11891432  0.54110843  0.81922484    -0.08400
C2599       C  0.11212313  0.57840019  0.83107715     0.62000
H2600       H  0.14045514  0.95356508  0.78622316     0.12700
H2601       H  0.08296049  0.47990754  0.79050632     0.12700
C2602       C  0.13724606  0.42880087  0.78685942     0.62300
F2603       F  0.09443915  0.96013107  0.77035855    -0.22900
F2604       F  0.08518489  0.56691443  0.83954402    -0.20200
F2605       F  0.10702249  0.62009624  0.82364457    -0.19900
F2606       F  0.14214738  0.38768118  0.79469186    -0.20000
F2607       F  0.16379794  0.43880601  0.77791139    -0.20300
F2608       F  0.11149120  0.42283989  0.77697531    -0.23000
C2609       C  0.26527872  0.91560147  0.74972256    -0.05800
C2610       C  0.25486963  0.95512898  0.75770705     0.00100
C2611       C  0.24579903  0.99503100  0.74938109    -0.08500
C2612       C  0.24685171  0.99344115  0.73316335    -0.05800
C2613       C  0.25633155  0.95342035  0.72515218     0.00100
C2614       C  0.26614147  0.91385872  0.73351881    -0.08400
C2615       C  0.27796445  0.87039130  0.72554023     0.62000
H2616       H  0.27235606  0.88547118  0.75637726     0.12700
H2617       H  0.23993630  0.02368856  0.72655260     0.12700
C2618       C  0.23427496  0.03843910  0.75746143     0.62300
F2619       F  0.28992846  0.83842248  0.73601981    -0.22900
F2620       F  0.30221595  0.88125586  0.71526726    -0.20200
F2621       F  0.25301069  0.84987938  0.71763627    -0.19900
F2622       F  0.25786275  0.55335986  0.76706132    -0.20000
F2623       F  0.20887009  0.02806045  0.76711708    -0.20300
F2624       F  0.22158157  0.56926795  0.74874443    -0.23000
C2625       C  0.23490342  0.60771929  0.35535728    -0.05800
C2626       C  0.23744061  0.65550902  0.35217796     0.00100
C2627       C  0.23871224  0.68668283  0.36477243    -0.08500
C2628       C  0.23791871  0.66866805  0.37988625    -0.05800
C2629       C  0.23517620  0.62105529  0.38305241     0.00100
C2630       C  0.23353120  0.58982903  0.37052948    -0.08400
C2631       C  0.22984060  0.53813135  0.37295872     0.62000
H2632       H  0.23413465  0.58386360  0.34575978     0.12700
H2633       H  0.23961771  0.69229068  0.38952621     0.12700
C2634       C  0.24032364  0.73872442  0.36256937     0.62300
F2635       F  0.22544336  0.51498107  0.35912091    -0.22900
F2636       F  0.20354672  0.52930049  0.38218354    -0.20200
F2637       F  0.25700108  0.52043624  0.37995910    -0.19900
F2638       F  0.21484878  0.75352472  0.35358009    -0.20000
F2639       F  0.26884485  0.75056100  0.35551347    -0.20300
F2640       F  0.23877924  0.76211025  0.37650603    -0.23000
C2641       C  0.25828741  0.81083665  0.12912310    -0.05800
C2642       C  0.25903114  0.76313738  0.13256175     0.00100
C2643       C  0.26110387  0.73143309  0.12014612    -0.08500
C2644       C  0.26065306  0.74869216  0.10489167    -0.05800
C2645       C  0.25960007  0.79636963  0.10141745     0.00100
C2646       C  0.25913940  0.82814286  0.11384348    -0.08400
C2647       C  0.26037687  0.87995636  0.11120670     0.62000
H2648       H  0.25694774  0.83502597  0.13861240     0.12700
H2649       H  0.26109153  0.72434439  0.09543272     0.12700
C2650       C  0.26465238  0.67972277  0.12274150     0.62300
F2651       F  0.26322992  0.90400298  0.12496477    -0.22900
F2652       F  0.23262795  0.89463006  0.10396468    -0.20200
F2653       F  0.28655873  0.89089702  0.10212206    -0.19900
F2654       F  0.23686247  0.66211195  0.12908027    -0.20000
F2655       F  0.29014419  0.67104996  0.13257890    -0.20300
F2656       F  0.27047393  0.65634954  0.10906877    -0.23000
C2657       C  0.27578475  0.72379563  0.23510569    -0.05800
C2658       C  0.24977987  0.70842632  0.22619714     0.00100
C2659       C  0.22120958  0.69454175  0.23362674    -0.08500
C2660       C  0.21986779  0.69622154  0.24987931    -0.05800
C2661       C  0.24584019  0.71176180  0.25878156     0.00100
C2662       C  0.27445119  0.72540539  0.25135548    -0.08400
C2663       C  0.30369013  0.74023073  0.26050922     0.62000
H2664       H  0.29725637  0.73484925  0.22914721     0.12700
H2665       H  0.19840459  0.68516578  0.25584479     0.12700
C2666       C  0.19199538  0.67951911  0.22448554     0.62300
F2667       F  0.32975649  0.74832809  0.25100811    -0.22900
F2668       F  0.31215493  0.70603705  0.27096731    -0.20200
F2669       F  0.29700835  0.78049535  0.26841585    -0.19900
F2670       F  0.19894958  0.63985059  0.21630190    -0.20000
F2671       F  0.18302167  0.71409956  0.21427618    -0.20300
F2672       F  0.16616937  0.67026544  0.23402698    -0.23000
C2673       C  0.46708128  0.63159868  0.37849329    -0.05800
C2674       C  0.49299088  0.65657881  0.38443443     0.00100
C2675       C  0.52096233  0.66232624  0.37554488    -0.08500
C2676       C  0.52205685  0.64279457  0.36071743    -0.05800
C2677       C  0.49614329  0.61777383  0.35463030     0.00100
C2678       C  0.46794054  0.61246643  0.36354224    -0.08400
C2679       C  0.43860156  0.58831051  0.35715817     0.62000
H2680       H  0.44623592  0.62687524  0.38577457     0.12700
H2681       H  0.54320601  0.64732242  0.35363128     0.12700
C2682       C  0.54950184  0.68861458  0.38184738     0.62300
F2683       F  0.41328909  0.58939763  0.36748291    -0.22900
F2684       F  0.44576181  0.54263195  0.35415709    -0.20200
F2685       F  0.42878136  0.60975374  0.34362273    -0.19900
F2686       F  0.56136823  0.66636800  0.39484493    -0.20000
F2687       F  0.54019430  0.73283297  0.38582497    -0.20300
F2688       F  0.57393526  0.69191721  0.37108715    -0.23000
C2689       C  0.38263876  0.60246137  0.29938011    -0.05800
C2690       C  0.40413433  0.63591879  0.30502317     0.00100
C2691       C  0.39178510  0.67872079  0.31011203    -0.08500
C2692       C  0.35837263  0.68552478  0.30996202    -0.05800
C2693       C  0.33662342  0.65163523  0.30469810     0.00100
C2694       C  0.34921476  0.60941925  0.29901028    -0.08400
C2695       C  0.32800443  0.57167493  0.29246268     0.62000
H2696       H  0.39234352  0.57020977  0.29527393     0.12700
H2697       H  0.34904091  0.71791635  0.31410945     0.12700
C2698       C  0.41343437  0.71698045  0.31593220     0.62300
F2699       F  0.34563029  0.53494032  0.28678407    -0.22900
F2700       F  0.30985473  0.58911250  0.28036530    -0.20200
F2701       F  0.30813826  0.55477047  0.30394703    -0.19900
F2702       F  0.43300181  0.73193462  0.30402923    -0.20000
F2703       F  0.43198986  0.70096817  0.32810001    -0.20300
F2704       F  0.39622764  0.75469631  0.32115943    -0.23000
C2705       C  0.47226974  0.03818424  0.10864438    -0.05800
C2706       C  0.50081500  0.02071430  0.10238592     0.00100
C2707       C  0.50792923  0.48443313  0.11664275    -0.08500
C2708       C  0.50718500  0.50312359  0.13158797    -0.05800
C2709       C  0.50602634  0.55106630  0.13437396     0.00100
C2710       C  0.47101799  0.05606260  0.12371984    -0.08400
C2711       C  0.43980970  0.07480389  0.13015964     0.62000
H2712       H  0.45081452  0.03762121  0.10156742     0.12700
H2713       H  0.50730296  0.47972749  0.14139504     0.12700
C2714       C  0.50912642  0.43228874  0.11478985     0.62300
F2715       F  0.41557617  0.07429646  0.11921901    -0.22900
F2716       F  0.44413112  0.11990576  0.13489808    -0.20200
F2717       F  0.43015036  0.04845540  0.14268310    -0.19900
F2718       F  0.53702714  0.41987038  0.10726074    -0.20000
F2719       F  0.48290570  0.41746619  0.10640555    -0.20300
F2720       F  0.50876937  0.40946095  0.12891059    -0.23000
C2721       C  0.35412906  0.64463827  0.19010086    -0.05800
C2722       C  0.34842835  0.68140726  0.17981353     0.00100
C2723       C  0.37286226  0.69561223  0.16956916    -0.08500
C2724       C  0.40211359  0.67132194  0.16967232    -0.05800
C2725       C  0.40771921  0.63387573  0.17978252     0.00100
C2726       C  0.38365520  0.62116932  0.19054399    -0.08400
C2727       C  0.38938224  0.58448253  0.20286355     0.62000
H2728       H  0.33505883  0.63446702  0.19787223     0.12700
H2729       H  0.42097182  0.68144197  0.16178151     0.12700
C2730       C  0.36776923  0.73548297  0.15838298     0.62300
F2731       F  0.36436887  0.58210976  0.21333776    -0.22900
F2732       F  0.41693124  0.59455947  0.21107478    -0.20200
F2733       F  0.39250094  0.54171737  0.19599675    -0.19900
F2734       F  0.36265648  0.77567596  0.16659937    -0.20000
F2735       F  0.34149018  0.72689032  0.14909158    -0.20300
F2736       F  0.39399899  0.74220140  0.14886738    -0.23000
C2737       C  0.48870676  0.62363354  0.23579920    -0.05800
C2738       C  0.49987368  0.58443417  0.22815996     0.00100
C2739       C  0.51003856  0.54514618  0.23685333    -0.08500
C2740       C  0.50806433  0.54663161  0.25305333    -0.05800
C2741       C  0.49697328  0.58588901  0.26068909     0.00100
C2742       C  0.48684034  0.62516541  0.25199679    -0.08400
C2743       C  0.47348509  0.66838833  0.25960593     0.62000
H2744       H  0.48098759  0.65295818  0.22891452     0.12700
H2745       H  0.51578319  0.51731571  0.25994729     0.12700
C2746       C  0.52375862  0.50211731  0.22925826     0.62300
F2747       F  0.45891583  0.69743130  0.24894306    -0.22900
F2748       F  0.49794245  0.69272790  0.26659171    -0.20200
F2749       F  0.45077130  0.65654845  0.27055167    -0.19900
F2750       F  0.54676392  0.51431861  0.21850266    -0.20000
F2751       F  0.49962878  0.47768801  0.22204785    -0.20300
F2752       F  0.53353744  0.97062953  0.24073863    -0.23000
C2753       C  0.00242638  0.84551027  0.37904776    -0.05800
C2754       C  0.99403979  0.89134714  0.38296145     0.00100
C2755       C  0.98569080  0.92262824  0.37092073    -0.08500
C2756       C  0.98527261  0.90628926  0.35564923    -0.05800
C2757       C  0.99349658  0.86063485  0.35184528     0.00100
C2758       C  0.00293881  0.82979302  0.36368521    -0.08400
C2759       C  0.01513656  0.78152666  0.36013414     0.62000
H2760       H  0.00904406  0.82153020  0.38817986     0.12700
H2761       H  0.97879407  0.92975926  0.34633444     0.12700
C2762       C  0.97789199  0.97314666  0.37383901     0.62300
F2763       F  0.02675392  0.75940354  0.37323239    -0.22900
F2764       F  0.03982175  0.78401591  0.34949796    -0.20200
F2765       F  0.99064386  0.75501330  0.35416266    -0.19900
F2766       F  0.00323950  0.99401482  0.38136212    -0.20000
F2767       F  0.95047539  0.97666121  0.38271753    -0.20300
F2768       F  0.97256849  0.99734704  0.36021608    -0.23000
C2769       C  0.09542821  0.75311418  0.31742182    -0.05800
C2770       C  0.08843099  0.78813428  0.30655196     0.00100
C2771       C  0.11202215  0.80058935  0.29551552    -0.08500
C2772       C  0.14162186  0.77708052  0.29567779    -0.05800
C2773       C  0.14827038  0.74163288  0.30636529     0.00100
C2774       C  0.12519537  0.73009990  0.31767483    -0.08400
C2775       C  0.13249568  0.69491054  0.33026305     0.62000
H2776       H  0.07728461  0.74393757  0.32579591     0.12700
H2777       H  0.15998072  0.78618162  0.28740217     0.12700
C2778       C  0.10575995  0.83735850  0.28330384     0.62300
F2779       F  0.10756910  0.69077999  0.34072153    -0.22900
F2780       F  0.15950697  0.70817453  0.33836006    -0.20200
F2781       F  0.13780870  0.65216290  0.32369857    -0.19900
F2782       F  0.10144238  0.87967619  0.29034427    -0.20000
F2783       F  0.07867426  0.82623131  0.27490782    -0.20300
F2784       F  0.13098789  0.84145261  0.27301622    -0.23000
C2785       C  0.97802632  0.79840560  0.10508824    -0.05800
C2786       C  0.00216423  0.76772794  0.10020310     0.00100
C2787       C  0.02707178  0.75541108  0.11059509    -0.08500
C2788       C  0.02579358  0.77230614  0.12582850    -0.05800
C2789       C  0.00129325  0.80203012  0.13067372     0.00100
C2790       C  0.97721842  0.81593208  0.12021337    -0.08400
C2791       C  0.95050865  0.84819580  0.12519011     0.62000
H2792       H  0.95946378  0.80824119  0.09695760     0.12700
H2793       H  0.04375626  0.76195424  0.13421065     0.12700
C2794       C  0.05536183  0.72606268  0.10560214     0.62300
F2795       F  0.92962640  0.85796839  0.11314996    -0.22900
F2796       F  0.96340206  0.88934533  0.13027556    -0.20200
F2797       F  0.93322546  0.82822065  0.13709788    -0.19900
F2798       F  0.06960977  0.74551563  0.09268184    -0.20000
F2799       F  0.04522994  0.68191850  0.10215997    -0.20300
F2800       F  0.07834870  0.72275534  0.11711644    -0.23000
C2801       C  0.11407465  0.81863513  0.18287663    -0.05800
C2802       C  0.09213163  0.78250446  0.18037872     0.00100
C2803       C  0.10414107  0.73703325  0.17853786    -0.08500
C2804       C  0.13753601  0.73025474  0.17854776    -0.05800
C2805       C  0.15958128  0.76673634  0.18044668     0.00100
C2806       C  0.14742996  0.81187184  0.18299210    -0.08400
C2807       C  0.16901302  0.85319267  0.18578318     0.62000
H2808       H  0.10482006  0.85305022  0.18471355     0.12700
H2809       H  0.14665801  0.69565223  0.17698895     0.12700
C2810       C  0.08230810  0.69559681  0.17643124     0.62300
F2811       F  0.15178505  0.89346615  0.18805225    -0.22900
F2812       F  0.18863256  0.86008651  0.17309566    -0.20200
F2813       F  0.18734951  0.84572932  0.19890832    -0.19900
F2814       F  0.06334576  0.70177603  0.16344274    -0.20000
F2815       F  0.06322468  0.69023778  0.18939266    -0.20300
F2816       F  0.09932939  0.65497889  0.17449693    -0.23000
C2817       C  0.97458592  0.80275116  0.23264057    -0.05800
C2818       C  0.99584330  0.83275158  0.22494545     0.00100
C2819       C  0.01749576  0.85951281  0.23376887    -0.08500
C2820       C  0.01702237  0.85483365  0.24996325    -0.05800
C2821       C  0.99574911  0.82485948  0.25764098     0.00100
C2822       C  0.97405758  0.79825691  0.24884275    -0.08400
C2823       C  0.94988902  0.76622471  0.25638972     0.62000
H2824       H  0.95810109  0.78253945  0.22577566     0.12700
H2825       H  0.03340946  0.87511592  0.25686032     0.12700
C2826       C  0.04138128  0.89227876  0.22631990     0.62300
F2827       F  0.92947225  0.74660411  0.24564879    -0.22900
F2828       F  0.93141212  0.79059203  0.26683587    -0.20200
F2829       F  0.96570014  0.73079102  0.26398717    -0.19900
F2830       F  0.02523164  0.92739060  0.21871578    -0.20000
F2831       F  0.06037969  0.86853942  0.21591795    -0.20300
F2832       F  0.06136153  0.91244310  0.23714520    -0.23000
C2833       C  0.72553872  0.84741317  0.35561872    -0.05800
C2834       C  0.73583004  0.89299268  0.35235806     0.00100
C2835       C  0.74687782  0.92065849  0.36479508    -0.08500
C2836       C  0.74598178  0.90216088  0.37985377    -0.05800
C2837       C  0.73573083  0.85688060  0.38299959     0.00100
C2838       C  0.72561850  0.82865458  0.37067501    -0.08400
C2839       C  0.71421455  0.77953971  0.37336805     0.62000
H2840       H  0.71746068  0.82587816  0.34620256     0.12700
H2841       H  0.75348719  0.92331776  0.38947569     0.12700
C2842       C  0.75986945  0.96917309  0.36249562     0.62300
F2843       F  0.70283782  0.75953657  0.35991334    -0.22900
F2844       F  0.68971653  0.77925805  0.38413156    -0.20200
F2845       F  0.73930939  0.75273332  0.37874736    -0.19900
F2846       F  0.73632928  0.99736151  0.35630686    -0.20000
F2847       F  0.78603029  0.96795008  0.35270084    -0.20300
F2848       F  0.76983740  0.98875973  0.37628337    -0.23000
C2849       C  0.85259879  0.91384128  0.31371868    -0.05800
C2850       C  0.83169879  0.88673552  0.30472925     0.00100
C2851       C  0.84484466  0.85196882  0.29512076    -0.08500
C2852       C  0.87834161  0.84540466  0.29508844    -0.05800
C2853       C  0.89911007  0.87302387  0.30392767     0.00100
C2854       C  0.88599985  0.90786868  0.31345709    -0.08400
C2855       C  0.90693955  0.93748259  0.32378255     0.62000
H2856       H  0.84243407  0.94029607  0.32108626     0.12700
H2857       H  0.88873380  0.81838253  0.28803933     0.12700
C2858       C  0.82396654  0.82279909  0.28463773     0.62300
F2859       F  0.88908637  0.96676394  0.33302598    -0.22900
F2860       F  0.92698070  0.96435529  0.31479027    -0.20200
F2861       F  0.92498822  0.90944205  0.33339657    -0.19900
F2862       F  0.80587626  0.85108618  0.27508231    -0.20000
F2863       F  0.80392450  0.79554743  0.29350596    -0.20300
F2864       F  0.84196639  0.79396084  0.27531113    -0.23000
C2865       C  0.64645393  0.53146112  0.30086827    -0.05800
C2866       C  0.64916858  0.48609718  0.30662451     0.00100
C2867       C  0.62200994  0.46505515  0.31335558    -0.08500
C2868       C  0.59320768  0.49049649  0.31415209    -0.05800
C2869       C  0.59035004  0.53608299  0.30838155     0.00100
C2870       C  0.61766704  0.55685106  0.30150428    -0.08400
C2871       C  0.61676232  0.60508125  0.29454200     0.62000
H2872       H  0.66745630  0.54709837  0.29575344     0.12700
H2873       H  0.57243252  0.47451839  0.31934536     0.12700
C2874       C  0.62347509  0.41646737  0.31998453     0.62300
F2875       F  0.64556746  0.61702886  0.28772567    -0.22900
F2876       F  0.61046712  0.63702121  0.30600439    -0.20200
F2877       F  0.59335517  0.60749758  0.28322476    -0.19900
F2878       F  0.64769052  0.41340924  0.33088469    -0.20000
F2879       F  0.64690913  0.93520804  0.27740683    -0.20300
F2880       F  0.59512783  0.40403409  0.32713095    -0.23000
C2881       C  0.75454669  0.49518014  0.10556129    -0.05800
C2882       C  0.75316865  0.54360524  0.10349255     0.00100
C2883       C  0.74977330  0.57203132  0.11665852    -0.08500
C2884       C  0.74816011  0.55083127  0.13130616    -0.05800
C2885       C  0.75074508  0.50257126  0.13339941     0.00100
C2886       C  0.75383639  0.47408112  0.12024231    -0.08400
C2887       C  0.75738757  0.42200320  0.12153454     0.62000
H2888       H  0.75638851  0.47341040  0.09544884     0.12700
H2889       H  0.74516067  0.57238687  0.14140971     0.12700
C2890       C  0.74880867  0.62433676  0.11549795     0.62300
F2891       F  0.76259695  0.40164509  0.10727081    -0.22900
F2892       F  0.72979809  0.40318676  0.12768928    -0.20200
F2893       F  0.78318233  0.41123552  0.13094404    -0.19900
F2894       F  0.68979647  0.10226053  0.10048344    -0.20000
F2895       F  0.77554717  0.63999387  0.10766914    -0.20300
F2896       F  0.74856509  0.64500353  0.12993099    -0.23000
C2897       C  0.64907479  0.54433629  0.18866152    -0.05800
C2898       C  0.65684856  0.50266217  0.18135162     0.00100
C2899       C  0.63163399  0.47523273  0.17501441    -0.08500
C2900       C  0.59992791  0.49111603  0.17627895    -0.05800
C2901       C  0.59241859  0.53329102  0.18320112     0.00100
C2902       C  0.61738399  0.56039241  0.18969351    -0.08400
C2903       C  0.61111019  0.60618515  0.19770905     0.62000
H2904       H  0.66823871  0.56479936  0.19349050     0.12700
H2905       H  0.58243550  0.98213906  0.16472919     0.12700
C2906       C  0.64192947  0.95127916  0.15810468     0.62300
F2907       F  0.63767861  0.62146674  0.20577709    -0.22900
F2908       F  0.58632758  0.60165333  0.20820965    -0.20200
F2909       F  0.60339667  0.63947881  0.18680136    -0.19900
F2910       F  0.65049423  0.90978427  0.16490551    -0.20000
F2911       F  0.66719936  0.96813588  0.14944049    -0.20300
F2912       F  0.61692346  0.94272904  0.14798249    -0.23000
C2913       C  0.84626144  0.87120615  0.17756893    -0.05800
C2914       C  0.84339763  0.91969253  0.17689160     0.00100
C2915       C  0.87161657  0.94633949  0.17528748    -0.08500
C2916       C  0.90135023  0.92331797  0.17473883    -0.05800
C2917       C  0.90429059  0.87477190  0.17574005     0.00100
C2918       C  0.87590842  0.84812711  0.17698314    -0.08400
C2919       C  0.87626340  0.79567620  0.17778667     0.62000
H2920       H  0.82470673  0.85090818  0.17880393     0.12700
H2921       H  0.92286283  0.94377921  0.17369462     0.12700
C2922       C  0.87080265  0.99868152  0.17404347     0.62300
F2923       F  0.84573285  0.77729766  0.17834286    -0.22900
F2924       F  0.89222551  0.78129256  0.19099714    -0.20200
F2925       F  0.89113811  0.77800979  0.16478197    -0.19900
F2926       F  0.85952307  0.01726373  0.18772497    -0.20000
F2927       F  0.85120603  0.01197614  0.16188787    -0.20300
F2928       F  0.90083716  0.01707467  0.17134572    -0.23000
C2929       C  0.71847148  0.92554766  0.24978018    -0.05800
C2930       C  0.74196430  0.94769174  0.25876525     0.00100
C2931       C  0.77215598  0.46964313  0.25098086    -0.08500
C2932       C  0.77370343  0.46507344  0.23480632    -0.05800
C2933       C  0.74709040  0.94368695  0.22614269     0.00100
C2934       C  0.72049509  0.92311401  0.23355066    -0.08400
C2935       C  0.69395587  0.89985428  0.22444787     0.62000
H2936       H  0.69832806  0.90992244  0.25565677     0.12700
H2937       H  0.79362259  0.48005587  0.22856272     0.12700
C2938       C  0.79890758  0.49411543  0.25954604     0.62300
F2939       F  0.66954329  0.88446335  0.23397145    -0.22900
F2940       F  0.70614946  0.86209718  0.21666956    -0.20200
F2941       F  0.68089946  0.93064253  0.21389974    -0.19900
F2942       F  0.80767185  0.95907704  0.27136686    -0.20000
F2943       F  0.78690019  0.53284579  0.26683745    -0.20300
F2944       F  0.82303351  0.50827824  0.24964292    -0.23000
loop_ 
_geom_bond_atom_site_label_1 
_geom_bond_atom_site_label_2 
_geom_bond_distance 
_geom_bond_site_symmetry_2 
_ccdc_geom_bond_type 
O1           Cu9   2.043   1_565  S
O1         C1483   1.282       .  A
O2           Cu9   2.035       .  S
O2           C12   1.283   1_545  A
O3           Cu9   1.966   1_565  S
O3         C1485   1.271       .  A
O4           Cu9   1.965       .  S
O4           C14   1.270   1_545  A
O5          Cu10   2.050       .  S
O5         C1486   1.284       .  A
O6          Cu10   2.043       .  S
O6           C13   1.283       .  A
O7        Cu1482   1.964       .  S
O7           C12   1.269       .  A
O8          Cu10   1.975       .  S
O8           C11   1.271       .  A
Cu9       Cu1482   2.368   1_545  S
Cu10       O1479   1.963       .  S
Cu10      Cu1481   2.365       .  S
C11        O1473   1.283       .  A
C11        C1442   1.481       .  S
C12        C1426   1.481   1_565  S
C13        O1475   1.269       .  A
C13        C1461   1.477       .  S
C14        O1477   1.282       .  A
C14        C1413   1.470   1_565  S
O15         Cu23   1.965       .  S
O15          C25   1.271       .  A
O16       Cu1495   1.976       .  S
O16        C1498   1.272       .  A
O17         Cu23   2.041       .  S
O17          C27   1.283       .  A
O18         Cu23   2.042       .  S
O18          C28   1.283       .  A
O19         Cu24   1.953       .  S
O19          C28   1.269       .  A
O20         Cu24   1.953       .  S
O20          C27   1.269       .  A
O21         Cu24   2.053       .  S
O21          C26   1.284       .  A
O22         Cu24   2.050       .  S
O22          C25   1.284       .  A
Cu23       O1488   1.978       .  S
Cu23        Cu24   2.366       .  S
C25        C1378   1.488       .  S
C26        O1488   1.272       .  A
C26        C2866   1.493       .  S
C27        C1362   1.485       .  S
C28        C1458   1.478       .  S
O29         Cu37   2.032       .  S
O29          C39   1.282   1_455  A
O30         Cu37   2.031       .  S
O30          C40   1.281   1_455  A
O31         Cu37   1.976   1_655  S
O31          C41   1.273       .  A
O32         Cu37   1.973       .  S
O32          C42   1.273       .  A
O33         Cu38   2.037   1_455  S
O33          C42   1.282       .  A
O34         Cu38   2.041       .  S
O34          C41   1.283       .  A
O35         Cu38   1.961       .  S
O35          C40   1.271       .  A
O36         Cu38   1.962       .  S
O36          C39   1.270       .  A
Cu37        Cu38   2.366   1_455  S
C39        C1346   1.474       .  S
C40        C1317   1.477       .  S
C41        C1445   1.490       .  S
C42        C1330   1.499       .  S
O43         Cu51   1.983   1_455  S
O43          C53   1.273       .  A
O44         Cu51   1.970       .  S
O44          C54   1.273       .  A
O45         Cu51   2.036       .  S
O45          C55   1.282       .  A
O46         Cu51   2.041       .  S
O46          C56   1.283       .  A
O47         Cu52   1.969       .  S
O47          C56   1.271   1_455  A
O48         Cu52   1.963       .  S
O48          C55   1.271   1_455  A
O49         Cu52   2.037   1_655  S
O49          C54   1.282       .  A
O50         Cu52   2.038       .  S
O50          C53   1.282       .  A
Cu51        Cu52   2.366   1_655  S
C53        C1298   1.491       .  S
C54        C1381   1.496       .  S
C55        C1349   1.475       .  S
C56        C1285   1.479       .  S
O57         Cu65   2.035       .  S
O57          C67   1.281       .  A
O58         Cu65   2.029       .  S
O58          C68   1.283       .  A
O59         Cu65   1.965       .  S
O59          C69   1.269       .  A
O60         Cu65   1.970       .  S
O60          C70   1.272       .  A
O61         Cu66   2.038       .  S
O61          C70   1.282       .  A
O62         Cu66   2.033       .  S
O62          C69   1.283       .  A
O63         Cu66   1.971       .  S
O63          C68   1.270       .  A
O64         Cu66   1.970       .  S
O64          C67   1.271       .  A
Cu65        Cu66   2.373       .  S
C67        C1237   1.466       .  S
C68        C1266   1.476       .  S
C69        C1429   1.473       .  S
C70        C1253   1.486       .  S
O71         Cu79   1.982       .  S
O71          C81   1.274       .  A
O72         Cu79   1.977       .  S
O72          C82   1.271       .  A
O73         Cu79   2.037       .  S
O73          C83   1.281       .  A
O74         Cu79   2.042       .  S
O74          C84   1.283       .  A
O75         Cu80   1.989       .  S
O75          C84   1.274       .  A
O76         Cu80   1.971       .  S
O76          C83   1.273       .  A
O77         Cu80   2.021       .  S
O77          C82   1.281       .  A
O78         Cu80   2.032       .  S
O78          C81   1.281       .  A
Cu79        Cu80   2.371       .  S
C81        C1205   1.484       .  S
C82        C1269   1.472       .  S
C83        C1218   1.477       .  S
C84        C1397   1.487       .  S
O85         Cu93   2.040       .  S
O85          C95   1.283       .  A
O86         Cu93   2.037       .  S
O86          C96   1.282       .  A
O87         Cu93   1.954       .  S
O87          C97   1.270       .  A
O88         Cu93   1.963       .  S
O88          C98   1.270       .  A
O89         Cu94   2.049       .  S
O89          C98   1.284       .  A
O90         Cu94   2.049       .  S
O90          C97   1.284       .  A
O91         Cu94   1.947       .  S
O91          C96   1.269       .  A
O92         Cu94   1.959       .  S
O92          C95   1.270       .  A
Cu93        Cu94   2.365       .  S
C95        C1170   1.490       .  S
C96        C1186   1.477       .  S
C97        C1333   1.496       .  S
C98        C1250   1.479       .  S
O99        Cu107   1.974       .  S
O99         C109   1.272       .  A
O100       Cu107   1.972       .  S
O100        C110   1.271       .  A
O101       Cu107   2.032       .  S
O101        C111   1.282       .  A
O102       Cu107   2.040       .  S
O102        C112   1.282       .  A
O103       Cu108   1.961       .  S
O103        C112   1.271       .  A
O104       Cu108   1.952       .  S
O104        C111   1.270       .  A
O105       Cu108   2.039       .  S
O105        C110   1.283       .  A
O106       Cu108   2.040       .  S
O106        C109   1.282       .  A
Cu107      Cu108   2.367       .  S
C109       C1301   1.479       .  S
C110       C1221   1.487       .  S
C111       C1189   1.472       .  S
C112       C1154   1.496       .  S
O113       Cu121   1.971       .  S
O113        C123   1.271       .  A
O114       Cu121   1.963       .  S
O114        C124   1.272       .  A
O115       Cu121   2.034       .  S
O115        C125   1.282       .  A
O116       Cu121   2.037       .  S
O116        C126   1.282       .  A
O117       Cu122   1.992       .  S
O117        C126   1.275       .  A
O118       Cu122   1.983       .  S
O118        C125   1.273       .  A
O119       Cu122   2.032       .  S
O119        C124   1.281       .  A
O120       Cu122   2.037       .  S
O120        C123   1.282       .  A
Cu121      Cu122   2.370       .  S
C123       C1090   1.467       .  S
C124       C1138   1.483       .  S
C125       C1109   1.486       .  S
C126       C1122   1.489       .  S
O127       Cu135   2.038       .  S
O127        C137   1.282       .  A
O128       Cu135   2.030       .  S
O128        C138   1.281       .  A
O129       Cu135   1.967       .  S
O129        C139   1.272       .  A
O130       Cu135   1.985       .  S
O130        C140   1.274       .  A
O131       Cu136   2.048       .  S
O131        C140   1.283       .  A
O132      Cu1608   2.041       .  S
O132       C1611   1.283   1_545  A
O133       Cu136   1.966       .  S
O133        C138   1.271       .  A
O134       Cu136   1.973       .  S
O134        C137   1.272       .  A
Cu135      Cu136   2.366       .  S
Cu136      O1604   2.045       .  S
C137       C1042   1.481       .  S
C138       C1141   1.482       .  S
C139       O1604   1.283       .  A
C139       C2533   1.489       .  S
C140       C1074   1.495       .  S
O141       Cu149   1.957       .  S
O141        C151   1.271       .  A
O142       Cu149   1.967       .  S
O142        C152   1.271       .  A
O143       Cu149   2.047       .  S
O143        C153   1.283       .  A
O144       Cu149   2.039       .  S
O144        C154   1.283       .  A
O145       Cu150   1.972       .  S
O145        C154   1.271       .  A
O146       Cu150   1.977       .  S
O146        C153   1.271       .  A
O147       Cu150   2.057       .  S
O147        C152   1.285       .  A
O148       Cu150   2.054       .  S
O148        C151   1.284       .  A
Cu149      Cu150   2.366       .  S
C151       C1106   1.494       .  S
C152       C1010   1.499       .  S
C153        C994   1.478       .  S
C154       C1026   1.479       .  S
O155       Cu163   2.035       .  S
O155        C165   1.282       .  A
O156       Cu163   2.039       .  S
O156        C166   1.282       .  A
O157       Cu163   1.973       .  S
O157        C167   1.272       .  A
O158       Cu163   1.971       .  S
O158        C168   1.272       .  A
O159       Cu164   2.041       .  S
O159        C168   1.282       .  A
O160       Cu164   2.046       .  S
O160        C167   1.283       .  A
O161       Cu164   1.995       .  S
O161        C166   1.276       .  A
O162       Cu164   1.982       .  S
O162        C165   1.273       .  A
Cu163      Cu164   2.365       .  S
C165        C978   1.484       .  S
C166       C1077   1.504       .  S
C167        C962   1.493       .  S
C168       C1029   1.479       .  S
O169       Cu177   2.034       .  S
O169        C179   1.282       .  A
O170       Cu177   2.032       .  S
O170        C180   1.281       .  A
O171       Cu177   1.979       .  S
O171        C181   1.274       .  A
O172       Cu177   1.987       .  S
O172        C182   1.274       .  A
O173       Cu178   2.032       .  S
O173        C182   1.281       .  A
O174       Cu178   2.033       .  S
O174        C181   1.281       .  A
O175       Cu178   1.967       .  S
O175        C180   1.272       .  A
O176       Cu178   1.965       .  S
O176        C179   1.271       .  A
Cu177      Cu178   2.364       .  S
C179        C914   1.485       .  S
C180        C946   1.478       .  S
C181        C981   1.494       .  S
C182        C930   1.496       .  S
O183       Cu191   1.956       .  S
O183        C193   1.270       .  A
O184       Cu191   1.965       .  S
O184        C194   1.271       .  A
O185       Cu191   2.037       .  S
O185        C195   1.282       .  A
O186       Cu191   2.032       .  S
O186        C196   1.282       .  A
O187       Cu192   1.968       .  S
O187        C196   1.271       .  A
O188       Cu192   1.976       .  S
O188        C195   1.272       .  A
O189       Cu192   2.058       .  S
O189        C194   1.285       .  A
O190       Cu192   2.054       .  S
O190        C193   1.285       .  A
Cu191      Cu192   2.366       .  S
C193        C898   1.494       .  S
C194       C1013   1.491       .  S
C195        C882   1.484       .  S
C196        C949   1.478       .  S
O197       Cu205   2.029       .  S
O197        C207   1.282   1_455  A
O198       Cu205   2.035       .  S
O198        C208   1.282       .  A
O199       Cu205   1.974   1_655  S
O199        C209   1.273       .  A
O200       Cu205   1.976       .  S
O200        C210   1.272       .  A
O201       Cu206   2.042   1_465  S
O201        C210   1.283   1_565  A
O202       Cu206   2.041       .  S
O202        C209   1.282       .  A
O203       Cu206   1.959       .  S
O203        C208   1.271   1_655  A
O204       Cu206   1.961       .  S
O204        C207   1.271       .  A
Cu205      Cu206   2.370   1_455  S
C207        C869   1.478       .  S
C208        C850   1.478       .  S
C209        C933   1.486       .  S
C210       C1058   1.481       .  S
O211       Cu219   1.970       .  S
O211        C221   1.272       .  A
O212       Cu219   1.988   1_455  S
O212        C222   1.272       .  A
O213       Cu219   2.044       .  S
O213        C223   1.283   1_655  A
O214       Cu219   2.037       .  S
O214        C224   1.282   1_655  A
O215       Cu220   1.943       .  S
O215        C224   1.269       .  A
O216       Cu220   1.951       .  S
O216        C223   1.270       .  A
O217       Cu220   2.045       .  S
O217        C222   1.283       .  A
O218       Cu220   2.042   1_655  S
O218        C221   1.283       .  A
Cu219      Cu220   2.367   1_655  S
C221        C901   1.485       .  S
C222       C1125   1.480       .  S
C223        C837   1.490       .  S
C224        C866   1.476       .  S
O225       Cu233   2.041       .  S
O225        C235   1.282       .  A
O226       Cu233   2.040       .  S
O226        C236   1.283       .  A
O227       Cu233   1.951       .  S
O227        C237   1.270       .  A
O228       Cu233   1.959       .  S
O228        C238   1.271       .  A
O229       Cu234   2.038       .  S
O229        C238   1.282       .  A
O230       Cu234   2.036       .  S
O230        C237   1.282       .  A
O231       Cu234   1.967       .  S
O231        C236   1.271       .  A
O232       Cu234   1.976       .  S
O232        C235   1.273       .  A
Cu233      Cu234   2.362       .  S
C235        C802   1.495       .  S
C236        C786   1.490       .  S
C237        C818   1.481       .  S
C238        C917   1.493       .  S
O239       Cu247   1.954       .  S
O239        C249   1.270       .  A
O240       Cu247   1.952       .  S
O240        C250   1.270       .  A
O241       Cu247   2.048       .  S
O241        C251   1.283       .  A
O242       Cu247   2.050       .  S
O242        C252   1.284       .  A
O243       Cu248   1.991       .  S
O243        C252   1.273       .  A
O244       Cu248   1.998       .  S
O244        C251   1.275       .  A
O245       Cu248   2.042       .  S
O245        C250   1.283       .  A
O246       Cu248   2.033       .  S
O246        C249   1.282       .  A
Cu247      Cu248   2.365       .  S
C249        C821   1.481       .  S
C250       C1365   1.492       .  S
C251        C773   1.496       .  S
C252        C754   1.484       .  S
O253       Cu261   1.972       .  S
O253        C263   1.271   1_455  A
O254       Cu261   1.964       .  S
O254        C264   1.272   1_455  A
O255       Cu261   2.046   1_655  S
O255        C265   1.283       .  A
O256       Cu261   2.044       .  S
O256        C266   1.283       .  A
O257       Cu262   1.990   1_455  S
O257        C266   1.274       .  A
O258       Cu262   1.990       .  S
O258        C265   1.274       .  A
O259       Cu262   2.042       .  S
O259        C264   1.282       .  A
O260       Cu262   2.037       .  S
O260        C263   1.282       .  A
Cu261      Cu262   2.371   1_455  S
C263       C1282   1.467       .  S
C264        C741   1.482       .  S
C265        C757   1.491       .  S
C266       C2197   1.488       .  S
O267       Cu275   2.046       .  S
O267        C277   1.283       .  A
O268       Cu275   2.038   1_455  S
O268        C278   1.282       .  A
O269       Cu275   1.969       .  S
O269        C279   1.271       .  A
O270       Cu275   1.970       .  S
O270        C280   1.271       .  A
O271       Cu276   2.045       .  S
O271        C280   1.283   1_455  A
O272       Cu276   2.039       .  S
O272        C279   1.283   1_455  A
O273       Cu276   1.969       .  S
O273        C278   1.272       .  A
O274       Cu276   1.975   1_655  S
O274        C277   1.272       .  A
Cu275      Cu276   2.367   1_655  S
C277        C805   1.488       .  S
C278        C706   1.494       .  S
C279        C738   1.483       .  S
C280        C853   1.479   1_655  S
O281       Cu289   1.964       .  S
O281        C291   1.271       .  A
O282       Cu289   1.954       .  S
O282        C292   1.267       .  A
O283       Cu289   2.055       .  S
O283        C293   1.285       .  A
O284       Cu289   2.051       .  S
O284        C294   1.284       .  A
O285       Cu290   1.975       .  S
O285        C294   1.272       .  A
O286       Cu290   1.962       .  S
O286        C293   1.271       .  A
O287       Cu290   2.037       .  S
O287        C292   1.284       .  A
O288       Cu290   2.039       .  S
O288        C291   1.282       .  A
Cu289      Cu290   2.365       .  S
C291       C1157   1.487       .  S
C292        C690   1.471       .  S
C293        C674   1.492       .  S
C294        C722   1.498       .  S
O295       Cu303   2.041       .  S
O295        C305   1.283       .  A
O296       Cu303   2.037       .  S
O296        C306   1.284       .  A
O297       Cu303   1.966       .  S
O297        C307   1.270       .  A
O298       Cu303   1.962       .  S
O298        C308   1.269       .  A
O299       Cu304   2.029       .  S
O299        C308   1.282       .  A
O300       Cu304   2.031       .  S
O300        C307   1.281       .  A
O301       Cu304   1.985       .  S
O301        C306   1.271       .  A
O302       Cu304   1.976       .  S
O302        C305   1.273       .  A
Cu303      Cu304   2.372       .  S
C305        C709   1.481       .  S
C306        C658   1.493       .  S
C307       C1045   1.464       .  S
C308        C693   1.469       .  S
O309       Cu317   2.057       .  S
O309        C319   1.287       .  A
O310       Cu317   2.048       .  S
O310        C320   1.283       .  A
O311       Cu317   1.959       .  S
O311        C321   1.269       .  A
O312       Cu317   1.968       .  S
O312        C322   1.270       .  A
O313       Cu318   2.046       .  S
O313        C322   1.283       .  A
O314       Cu318   2.040       .  S
O314        C321   1.283       .  A
O315       Cu318   1.959       .  S
O315        C320   1.271       .  A
O316       Cu318   1.961       .  S
O316        C319   1.266       .  A
Cu317      Cu318   2.364       .  S
C319        C661   1.501       .  S
C320        C789   1.499       .  S
C321        C642   1.474       .  S
C322        C965   1.473       .  S
O323       Cu331   1.984       .  S
O323        C333   1.274       .  A
O324       Cu331   1.983       .  S
O324        C334   1.274       .  A
O325       Cu331   2.033       .  S
O325        C335   1.282       .  A
O326       Cu331   2.039       .  S
O326        C336   1.282       .  A
O327       Cu332   1.971       .  S
O327        C336   1.270       .  A
O328       Cu332   1.967       .  S
O328        C335   1.271       .  A
O329       Cu332   2.046       .  S
O329        C334   1.283       .  A
O330       Cu332   2.057       .  S
O330        C333   1.284       .  A
Cu331      Cu332   2.366       .  S
C333        C770   1.505       .  S
C334        C677   1.502       .  S
C335        C645   1.475       .  S
C336       C1202   1.469       .  S
O337       Cu345   1.955       .  S
O337        C347   1.269       .  A
O338       Cu345   1.956       .  S
O338        C348   1.268       .  A
O339       Cu345   2.061       .  S
O339        C349   1.287       .  A
O340       Cu345   2.062       .  S
O340        C350   1.288       .  A
O341       Cu346   1.963       .  S
O341        C350   1.266       .  A
O342       Cu346   1.975       .  S
O342        C349   1.269       .  A
O343       Cu346   2.050       .  S
O343        C348   1.284       .  A
O344       Cu346   2.045       .  S
O344        C347   1.283       .  A
Cu345      Cu346   2.363       .  S
C347        C626   1.482       .  S
C348       C1093   1.471       .  S
C349        C613   1.498       .  S
C350        C594   1.503       .  S
O351       Cu359   2.047       .  S
O351        C361   1.284       .  A
O352       Cu359   2.049       .  S
O352        C362   1.284       .  A
O353       Cu359   1.990       .  S
O353        C363   1.274       .  A
O354       Cu359   1.981       .  S
O354        C364   1.273       .  A
O355       Cu360   2.048       .  S
O355        C364   1.284       .  A
O356       Cu360   2.052       .  S
O356        C363   1.284       .  A
O357       Cu360   1.949       .  S
O357        C362   1.268       .  A
O358       Cu360   1.949       .  S
O358        C361   1.269       .  A
Cu359      Cu360   2.366       .  S
C361        C629   1.480       .  S
C362       C1173   1.470       .  S
C363        C578   1.504       .  S
C364        C562   1.495       .  S
O365       Cu373   1.969       .  S
O365        C375   1.270       .  A
O366       Cu373   1.968       .  S
O366        C376   1.270       .  A
O367       Cu373   2.053       .  S
O367        C377   1.284       .  A
O368       Cu373   2.047       .  S
O368        C378   1.284       .  A
O369       Cu374   1.973       .  S
O369        C378   1.271       .  A
O370       Cu374   1.975       .  S
O370        C377   1.273       .  A
O371       Cu374   2.035       .  S
O371        C376   1.281       .  A
O372       Cu374   2.032       .  S
O372        C375   1.282       .  A
Cu373      Cu374   2.372       .  S
C375        C549   1.472       .  S
C376        C885   1.466       .  S
C377        C530   1.501       .  S
C378        C514   1.476       .  S
O379       Cu387   2.038       .  S
O379        C389   1.284       .  A
O380       Cu387   2.038       .  S
O380        C390   1.282       .  A
O381       Cu387   1.947       .  S
O381        C391   1.269       .  A
O382       Cu387   1.958       .  S
O382        C392   1.271       .  A
O383       Cu388   2.045       .  S
O383        C392   1.283       .  A
O384       Cu388   2.040       .  S
O384        C391   1.282       .  A
O385       Cu388   1.971       .  S
O385        C390   1.272       .  A
O386       Cu388   1.981       .  S
O386        C389   1.270       .  A
Cu387      Cu388   2.368       .  S
C389        C498   1.489       .  S
C390        C485   1.480       .  S
C391        C546   1.468       .  S
C392       C1410   1.493       .  S
O393       Cu401   1.967       .  S
O393        C403   1.268       .  A
O394       Cu401   1.975       .  S
O394        C404   1.272       .  A
O395       Cu401   2.045       .  S
O395        C405   1.283       .  A
O396       Cu401   2.041       .  S
O396        C406   1.282       .  A
O397       Cu402   1.970       .  S
O397        C406   1.270       .  A
O398       Cu402   1.979       .  S
O398        C405   1.273       .  A
O399       Cu402   2.052       .  S
O399        C404   1.284       .  A
O400       Cu402   2.050       .  S
O400        C403   1.286       .  A
Cu401      Cu402   2.367       .  S
C403        C597   1.494       .  S
C404        C533   1.487       .  S
C405        C997   1.495       .  S
C406        C466   1.468       .  S
O407       Cu415   2.046       .  S
O407        C417   1.283       .  A
O408       Cu415   2.049       .  S
O408        C418   1.283       .  A
O409       Cu415   1.967       .  S
O409        C419   1.272       .  A
O410       Cu415   1.967       .  S
O410        C420   1.270       .  A
O411       Cu416   2.033       .  S
O411        C420   1.281       .  A
O412       Cu416   2.033       .  S
O412        C419   1.282       .  A
O413       Cu416   1.993       .  S
O413        C418   1.274       .  A
O414       Cu416   1.975       .  S
O414        C417   1.272       .  A
Cu415      Cu416   2.367       .  S
C417        C482   1.491       .  S
C418        C581   1.495       .  S
C419       C1234   1.490       .  S
C420        C469   1.465       .  S
O421       Cu429   1.951       .  S
O421        C431   1.267       .  A
O422       Cu429   1.956       .  S
O422        C432   1.271       .  A
O423       Cu429   2.049       .  S
O423        C433   1.284       .  A
O424       Cu429   2.044   1_655  S
O424        C434   1.283       .  A
O425       Cu430   1.978       .  S
O425        C434   1.271       .  A
O426       Cu430   1.991   1_455  S
O426        C433   1.272       .  A
O427       Cu430   2.036       .  S
O427        C432   1.282   1_655  A
O428       Cu430   2.027       .  S
O428        C431   1.282   1_655  A
Cu429      Cu430   2.369   1_455  S
C431        C450   1.472       .  S
C432        C834   1.488       .  S
C433        C610   1.489       .  S
C434        C517   1.473       .  S
O435       Cu443   2.023       .  S
O435        C445   1.279   1_455  A
O436       Cu443   2.015       .  S
O436        C446   1.282   1_455  A
O437       Cu443   1.978       .  S
O437        C447   1.273       .  A
O438       Cu443   1.977   1_655  S
O438        C448   1.271       .  A
O439       Cu444   2.043       .  S
O439        C448   1.283       .  A
O440       Cu444   2.045   1_455  S
O440        C447   1.283       .  A
O441       Cu444   1.969       .  S
O441        C446   1.269       .  A
O442       Cu444   1.967       .  S
O442        C445   1.273       .  A
Cu443      Cu444   2.366   1_455  S
C445       C1314   1.493       .  S
C446        C453   1.475       .  S
C447        C565   1.488       .  S
C448        C501   1.479       .  S
C449        C450   1.400   1_655  A
C449        C454   1.405       .  A
C449        H456   1.083       .  S
C450        C451   1.422       .  A
C451        C452   1.398       .  A
C451        C458   1.523       .  S
C452        C453   1.399   1_456  A
C452        H457   1.083   1_556  S
C453        C454   1.424   1_554  A
C454        C455   1.522   1_556  S
C455        F459   1.385   1_554  S
C455        F460   1.382       .  S
C455        F461   1.383       .  S
C458        F462   1.383       .  S
C458        F463   1.383       .  S
C458        F464   1.385       .  S
C465        C466   1.402       .  A
C465        C470   1.406   1_556  A
C465        H472   1.084       .  S
C466        C467   1.415       .  A
C467        C468   1.405   1_556  A
C467        C474   1.517       .  S
C468        C469   1.400       .  A
C468        H473   1.084       .  S
C469        C470   1.413       .  A
C470        C471   1.518       .  S
C471        F475   1.384   1_554  S
C471        F476   1.383       .  S
C471        F477   1.383       .  S
C474        F478   1.382       .  S
C474        F479   1.382       .  S
C474        F480   1.385       .  S
C481        C486   1.407       .  A
C481       C1954   1.414       .  A
C481        H488   1.082   1_545  S
C482        C483   1.418       .  A
C482       C1953   1.412       .  A
C483        C484   1.409       .  A
C483        C490   1.519       .  S
C484       C1957   1.407       .  A
C484        H489   1.083       .  S
C485        C486   1.411       .  A
C485       C1956   1.407       .  A
C486        C487   1.520   1_545  S
C487        F491   1.384       .  S
C487        F492   1.384       .  S
C487        F493   1.383       .  S
C490        F494   1.385       .  S
C490        F495   1.383       .  S
C490        F496   1.383       .  S
C497        C498   1.403       .  A
C497        C502   1.405       .  A
C497        H504   1.083       .  S
C498        C499   1.427       .  A
C499        C500   1.410       .  A
C499        C506   1.521       .  S
C500        C501   1.400       .  A
C500        H505   1.083       .  S
C501        C502   1.419       .  A
C502        C503   1.520       .  S
C503        F507   1.385       .  S
C503        F508   1.382       .  S
C503        F509   1.383       .  S
C506        F510   1.383       .  S
C506        F511   1.383       .  S
C506        F512   1.385       .  S
C513        C514   1.406       .  A
C513        C518   1.407       .  A
C513        H520   1.084       .  S
C514        C515   1.414       .  A
C515        C516   1.408       .  A
C515        C522   1.516       .  S
C516        C517   1.404       .  A
C516        H521   1.084       .  S
C517        C518   1.413       .  A
C518        C519   1.518       .  S
C519        F523   1.385       .  S
C519        F524   1.383       .  S
C519        F525   1.383       .  S
C522        F526   1.383       .  S
C522        F527   1.382       .  S
C522        F528   1.385       .  S
C529        C534   1.410       .  A
C529       C2002   1.414       .  A
C529        H536   1.083       .  S
C530        C531   1.419       .  A
C530       C2001   1.414       .  A
C531       C2004   1.410       .  A
C531        C538   1.520       .  S
C532        C533   1.408       .  A
C532       C2003   1.409       .  A
C532       H2009   1.083       .  S
C533        C534   1.412       .  A
C534        C535   1.518       .  S
C535        F539   1.385       .  S
C535        F540   1.383       .  S
C535        F541   1.383       .  S
H537       C2004   1.082       .  S
C538        F542   1.383       .  S
C538        F543   1.384       .  S
C538        F544   1.385       .  S
C545        C546   1.404       .  A
C545        C550   1.400   1_554  A
C545        H552   1.084       .  S
C546        C547   1.410       .  A
C547        C548   1.408   1_554  A
C547        C554   1.517       .  S
C548        C549   1.409       .  A
C548        H553   1.082       .  S
C549        C550   1.412       .  A
C550        C551   1.519       .  S
C551        F555   1.385       .  S
C551        F556   1.382       .  S
C551        F557   1.383       .  S
C554        F558   1.384       .  S
C554        F559   1.383       .  S
C554        F560   1.385       .  S
C561        C562   1.412       .  A
C561        C566   1.409       .  A
C561        H568   1.085       .  S
C562        C563   1.419       .  A
C563        C564   1.409       .  A
C563        C570   1.519       .  S
C564        C565   1.408       .  A
C564        H569   1.086       .  S
C565        C566   1.415       .  A
C566        C567   1.519       .  S
C567        F571   1.384       .  S
C567        F572   1.383       .  S
C567        F573   1.383       .  S
C570        F574   1.382       .  S
C570        F575   1.384       .  S
C570        F576   1.385       .  S
C577        C578   1.414       .  A
C577        C582   1.412       .  A
C577        H584   1.084       .  S
C578        C579   1.421       .  A
C579        C580   1.411       .  A
C579        C586   1.519       .  S
C580        C581   1.408       .  A
C580        H585   1.085       .  S
C581        C582   1.416       .  A
C582        C583   1.519       .  S
C583        F587   1.385       .  S
C583        F588   1.382       .  S
C583        F589   1.384       .  S
C586        F590   1.383       .  S
C586        F591   1.383       .  S
C586        F592   1.385       .  S
C593        C594   1.404       .  A
C593        C598   1.410       .  A
C593        H600   1.083       .  S
C594        C595   1.435       .  A
C595        C596   1.408       .  A
C595        C602   1.525       .  S
C596        C597   1.398       .  A
C596        H601   1.083       .  S
C597        C598   1.428       .  A
C598        C599   1.523       .  S
C599        F603   1.385       .  S
C599        F604   1.383       .  S
C599        F605   1.384       .  S
C602        F606   1.383       .  S
C602        F607   1.383       .  S
C602        F608   1.385       .  S
C609        C610   1.398       .  A
C609        C614   1.410       .  A
C609        H616   1.080       .  S
C610        C611   1.423       .  A
C611        C612   1.411       .  A
C611        C618   1.521       .  S
C612        C613   1.404       .  A
C612        H617   1.080       .  S
C613        C614   1.430       .  A
C614        C615   1.522       .  S
C615        F619   1.385       .  S
C615        F620   1.383       .  S
C615        F621   1.384       .  S
C618        F622   1.383       .  S
C618        F623   1.382       .  S
C618        F624   1.385       .  S
C625        C626   1.409       .  A
C625        C630   1.405   1_556  A
C625        H632   1.083       .  S
C626        C627   1.414       .  A
C627        C628   1.405   1_556  A
C627        C634   1.518       .  S
C628        C629   1.410       .  A
C628        H633   1.083       .  S
C629        C630   1.414       .  A
C630        C631   1.520       .  S
C631        F635   1.385   1_554  S
C631        F636   1.382       .  S
C631        F637   1.383       .  S
C634        F638   1.383       .  S
C634        F639   1.383       .  S
C634        F640   1.385       .  S
C641        C642   1.407       .  A
C641        C646   1.404       .  A
C641        H648   1.084       .  S
C642        C643   1.412       .  A
C643        C644   1.406       .  A
C643        C650   1.519       .  S
C644        C645   1.408       .  A
C644        H649   1.084       .  S
C645        C646   1.413       .  A
C646        C647   1.519       .  S
C647        F651   1.385       .  S
C647        F652   1.383       .  S
C647        F653   1.384       .  S
C650        F654   1.384       .  S
C650        F655   1.382       .  S
C650        F656   1.385       .  S
C657        C658   1.399       .  A
C657        C662   1.408       .  A
C657        H664   1.081       .  S
C658        C659   1.425       .  A
C659        C660   1.410       .  A
C659        C666   1.521       .  S
C660        C661   1.405       .  A
C660        H665   1.081       .  S
C661        C662   1.434       .  A
C662        C663   1.525       .  S
C663        F667   1.385       .  S
C663        F668   1.383       .  S
C663        F669   1.384       .  S
C666        F670   1.383       .  S
C666        F671   1.384       .  S
C666        F672   1.385       .  S
C673        C674   1.410       .  A
C673        C678   1.408       .  A
C673        H680   1.082       .  S
C674        C675   1.414       .  A
C675        C676   1.411       .  A
C675        C682   1.519       .  S
C676        C677   1.416       .  A
C676        H681   1.081       .  S
C677        C678   1.421       .  A
C678        C679   1.521       .  S
C679        F683   1.385       .  S
C679        F684   1.383       .  S
C679        F685   1.383       .  S
C682        F686   1.383       .  S
C682        F687   1.383       .  S
C682        F688   1.384       .  S
C689        C690   1.400       .  A
C689        C694   1.402       .  A
C689        H696   1.083       .  S
C690        C691   1.422       .  A
C691        C692   1.405       .  A
C691        C698   1.521       .  S
C692        C693   1.400       .  A
C692        H697   1.083       .  S
C693        C694   1.418       .  A
C694        C695   1.520       .  S
C695        F699   1.385       .  S
C695        F700   1.382       .  S
C695        F701   1.384       .  S
C698        F702   1.383       .  S
C698        F703   1.382       .  S
C698        F704   1.385       .  S
C705        C706   1.414       .  A
C705        C710   1.406       .  A
C705        H712   1.082       .  S
C706       C2179   1.419       .  A
C707        C708   1.408       .  A
C707       C2178   1.419   1_545  A
C707        C714   1.519       .  S
C708        C709   1.406       .  A
C708        H713   1.084       .  S
C709       C2182   1.413   1_545  A
C710       C2181   1.414       .  A
C710        C711   1.520       .  S
C711        F715   1.385       .  S
C711        F716   1.382       .  S
C711        F717   1.383       .  S
C714        F718   1.382       .  S
C714        F719   1.383       .  S
C714        F720   1.385       .  S
C721        C722   1.414   1_565  A
C721       C2198   1.411       .  A
C721        H728   1.082       .  S
C722        C723   1.416       .  A
C723        C724   1.408       .  A
C723        C730   1.520       .  S
C724        C725   1.416   1_545  A
C724        H729   1.081       .  S
C725       C1738   1.503       .  S
C725       C2198   1.419       .  A
C726       C2193   1.410       .  A
C726       C2197   1.419       .  A
C726        C727   1.519       .  S
C727        F731   1.385       .  S
C727        F732   1.382       .  S
C727        F733   1.382       .  S
C730        F734   1.383       .  S
C730        F735   1.383       .  S
C730        F736   1.385       .  S
C737        C738   1.410   1_455  A
C737        C742   1.408   1_455  A
C737        H744   1.083       .  S
C738        C739   1.414       .  A
C739        C740   1.404       .  A
C739        C746   1.519       .  S
C740        C741   1.408       .  A
C740        H745   1.082       .  S
C741        C742   1.415       .  A
C742        C743   1.520   1_655  S
C743        F747   1.385       .  S
C743        F748   1.382   1_455  S
C743        F749   1.382       .  S
C746        F751   1.382       .  S
C746       F2222   1.383       .  S
C746       F2224   1.385       .  S
F750       C2218   1.382       .  S
F752       C2218   1.385       .  S
C753        C754   1.405       .  A
C753        C758   1.411       .  A
C753        H760   1.085       .  S
C754        C755   1.414       .  A
C755        C756   1.409       .  A
C755        C762   1.518       .  S
C756        C757   1.408       .  A
C756        H761   1.085       .  S
C757        C758   1.419       .  A
C758        C759   1.518       .  S
C759        F763   1.385       .  S
C759        F764   1.383       .  S
C759        F765   1.383       .  S
C762        F766   1.382       .  S
C762        F767   1.383       .  S
C762        F768   1.385       .  S
C769        C770   1.414       .  A
C769        C774   1.410       .  A
C769        H776   1.082       .  S
C770        C771   1.422       .  A
C771        C772   1.414       .  A
C771        C778   1.519       .  S
C772        C773   1.409       .  A
C772        H777   1.083       .  S
C773        C774   1.415       .  A
C774        C775   1.519       .  S
C775        F779   1.385       .  S
C775        F780   1.384       .  S
C775        F781   1.382       .  S
C778        F782   1.383       .  S
C778        F783   1.384       .  S
C778        F784   1.385       .  S
C785        C786   1.412       .  A
C785        C790   1.408       .  A
C785        H792   1.083       .  S
C786        C787   1.414       .  A
C787        C788   1.405       .  A
C787        C794   1.521       .  S
C788        C789   1.415       .  A
C788        H793   1.081       .  S
C789        C790   1.419       .  A
C790        C791   1.520       .  S
C791        F795   1.385       .  S
C791        F796   1.383       .  S
C791        F797   1.384       .  S
C794        F798   1.384       .  S
C794        F799   1.383       .  S
C794        F800   1.385       .  S
C801        C802   1.413       .  A
C801        C806   1.408       .  A
C801        H808   1.082       .  S
C802        C803   1.419       .  A
C803        C804   1.408       .  A
C803        C810   1.521       .  S
C804        C805   1.409       .  A
C804        H809   1.082       .  S
C805        C806   1.413       .  A
C806        C807   1.519       .  S
C807        F811   1.385       .  S
C807        F812   1.382       .  S
C807        F813   1.383       .  S
C810        F814   1.384       .  S
C810        F815   1.383       .  S
C810        F816   1.385       .  S
C817        C818   1.410       .  A
C817        C822   1.403       .  A
C817        H824   1.083       .  S
C818        C819   1.415       .  A
C819        C820   1.404       .  A
C819        C826   1.520       .  S
C820        C821   1.410       .  A
C820        H825   1.083       .  S
C821        C822   1.414       .  A
C822        C823   1.519       .  S
C823        F827   1.385       .  S
C823        F828   1.382       .  S
C823        F829   1.383       .  S
C826        F830   1.383       .  S
C826        F831   1.383       .  S
C826        F832   1.385       .  S
C833        C834   1.413       .  A
C833        C838   1.406       .  A
C833        H840   1.082   1_455  S
C834        C835   1.414       .  A
C835        C836   1.404       .  A
C835        C842   1.521       .  S
C836        C837   1.414       .  A
C836        H841   1.082       .  S
C837        C838   1.415       .  A
C838        C839   1.520   1_455  S
C839        F843   1.385       .  S
C839        F844   1.383   1_655  S
C839        F845   1.383       .  S
C842        F846   1.383       .  S
C842        F847   1.383   1_455  S
C842        F848   1.385       .  S
C849        C850   1.406   1_565  A
C849       C2326   1.403       .  A
C849        H856   1.081       .  S
C850        C851   1.410   1_455  A
C851        C852   1.405       .  A
C851        C858   1.520       .  S
C852       C2325   1.417   1_545  A
C852       H2329   1.082       .  S
C853        C854   1.409   1_455  A
C853       C2324   1.406       .  A
C854       C2321   1.406       .  A
C854        C855   1.519       .  S
C855        F859   1.385       .  S
C855        F860   1.383       .  S
C855        F861   1.382       .  S
H857       C2324   1.083       .  S
C858        F862   1.383   1_655  S
C858        F863   1.384       .  S
C858        F864   1.385       .  S
C865        C866   1.407       .  A
C865        C870   1.400       .  A
C865        H872   1.083       .  S
C866        C867   1.413   1_455  A
C867        C868   1.406       .  A
C867        C874   1.518       .  S
C868        C869   1.410       .  A
C868        H873   1.083       .  S
C869        C870   1.414   1_655  A
C870        C871   1.519       .  S
C871        F875   1.385       .  S
C871        F876   1.383       .  S
C871        F877   1.380       .  S
C874        F878   1.383       .  S
C874        F879   1.383   1_545  S
C874        F880   1.385   1_545  S
C881        C882   1.410       .  A
C881        C886   1.407       .  A
C881        H888   1.085       .  S
C882        C883   1.419       .  A
C883        C884   1.406       .  A
C883        C890   1.518       .  S
C884        C885   1.401       .  A
C884        H889   1.085       .  S
C885        C886   1.409       .  A
C886        C887   1.518       .  S
C887        F891   1.384       .  S
C887        F892   1.383       .  S
C887        F893   1.383       .  S
C890        F894   1.382       .  S
C890        F895   1.383       .  S
C890        F896   1.385       .  S
C897        C898   1.414       .  A
C897        C902   1.406       .  A
C897        H904   1.080       .  S
C898        C899   1.417       .  A
C899        C900   1.408       .  A
C899        C906   1.519       .  S
C900        C901   1.409       .  A
C900        H905   1.080       .  S
C901        C902   1.413       .  A
C902        C903   1.520       .  S
C903        F907   1.385       .  S
C903        F908   1.383       .  S
C903        F909   1.383       .  S
C906        F910   1.384       .  S
C906        F911   1.383       .  S
C906        F912   1.385       .  S
C913        C914   1.410       .  A
C913        C918   1.406       .  A
C913        H920   1.082       .  S
C914        C915   1.413       .  A
C915        C916   1.405       .  A
C915        C922   1.521       .  S
C916        C917   1.415       .  A
C916        H921   1.082       .  S
C917        C918   1.418       .  A
C918        C919   1.520       .  S
C919        F923   1.385       .  S
C919        F924   1.383       .  S
C919        F925   1.384       .  S
C922        F926   1.382       .  S
C922        F927   1.384       .  S
C922        F928   1.385       .  S
C929        C930   1.414       .  A
C929        C934   1.410       .  A
C929        H936   1.082       .  S
C930        C931   1.421       .  A
C931        C932   1.406       .  A
C931        C938   1.521       .  S
C932        C933   1.406       .  A
C932        H937   1.083       .  S
C933        C934   1.414       .  A
C934        C935   1.519       .  S
C935        F939   1.385       .  S
C935        F940   1.382       .  S
C935        F941   1.384       .  S
C938        F942   1.383       .  S
C938        F943   1.383       .  S
C938        F944   1.385       .  S
C945        C946   1.407       .  A
C945        C950   1.403       .  A
C945        H952   1.083       .  S
C946        C947   1.413       .  A
C947        C948   1.406       .  A
C947        C954   1.519       .  S
C948        C949   1.409       .  A
C948        H953   1.083       .  S
C949        C950   1.413       .  A
C950        C951   1.519       .  S
C951        F955   1.385       .  S
C951        F956   1.382       .  S
C951        F957   1.384       .  S
C954        F958   1.384       .  S
C954        F959   1.383       .  S
C954        F960   1.385       .  S
C961        C962   1.413       .  A
C961        C966   1.406       .  A
C961        H968   1.083       .  S
C962        C963   1.421       .  A
C963        C964   1.410       .  A
C963        C970   1.519       .  S
C964        C965   1.404       .  A
C964        H969   1.084       .  S
C965        C966   1.408       .  A
C966        C967   1.518       .  S
C967        F971   1.384       .  S
C967        F972   1.383       .  S
C967        F973   1.384       .  S
C970        F974   1.383       .  S
C970        F975   1.383       .  S
C970        F976   1.385       .  S
C977        C978   1.407       .  A
C977        C982   1.408       .  A
C977        H984   1.085       .  S
C978        C979   1.414       .  A
C979        C980   1.406       .  A
C979        C986   1.520       .  S
C980        C981   1.412       .  A
C980        H985   1.084       .  S
C981        C982   1.421       .  A
C982        C983   1.520       .  S
C983        F987   1.385       .  S
C983        F988   1.383       .  S
C983        F989   1.383       .  S
C986        F990   1.384       .  S
C986        F991   1.382       .  S
C986        F992   1.385       .  S
C993        C994   1.404       .  A
C993        C998   1.410       .  A
C993       H1000   1.084       .  S
C994        C995   1.410       .  A
C995        C996   1.408       .  A
C995       C1002   1.518       .  S
C996        C997   1.413       .  A
C996       H1001   1.083       .  S
C997        C998   1.421       .  A
C998        C999   1.520       .  S
C999       F1003   1.385       .  S
C999       F1004   1.383       .  S
C999       F1005   1.384       .  S
C1002      F1006   1.383       .  S
C1002      F1007   1.383       .  S
C1002      F1008   1.384       .  S
C1009      C1010   1.416       .  A
C1009      C1014   1.410       .  A
C1009      H1016   1.082       .  S
C1010      C1011   1.419       .  A
C1011      C1012   1.409       .  A
C1011      C1018   1.520       .  S
C1012      C1013   1.410       .  A
C1012      H1017   1.083       .  S
C1013      C1014   1.413       .  A
C1014      C1015   1.519       .  S
C1015      F1019   1.385       .  S
C1015      F1020   1.383       .  S
C1015      F1021   1.383       .  S
C1018      F1022   1.383       .  S
C1018      F1023   1.383       .  S
C1018      F1024   1.385       .  S
C1025      C1026   1.407       .  A
C1025      C1030   1.408       .  A
C1025      H1032   1.083       .  S
C1026      C1027   1.415       .  A
C1027      C1028   1.405       .  A
C1027      C1034   1.519       .  S
C1028      C1029   1.406       .  A
C1028      H1033   1.083       .  S
C1029      C1030   1.415       .  A
C1030      C1031   1.517       .  S
C1031      F1035   1.385       .  S
C1031      F1036   1.383       .  S
C1031      F1037   1.382       .  S
C1034      F1038   1.383       .  S
C1034      F1039   1.382       .  S
C1034      F1040   1.385       .  S
C1041      C1042   1.408       .  A
C1041      C1046   1.405       .  A
C1041      H1048   1.084       .  S
C1042      C2515   1.419       .  A
C1043      C1044   1.405       .  A
C1043      C2514   1.414   1_545  A
C1043      C1050   1.517   1_545  S
C1044      C1045   1.401       .  A
C1044      H1049   1.083       .  S
C1045      C2518   1.415       .  A
C1046      C2517   1.410       .  A
C1046      C1047   1.517       .  S
C1047      F1051   1.384       .  S
C1047      F1053   1.383       .  S
C1047      F2524   1.383       .  S
C1050      F1054   1.383   1_565  S
C1050      F1055   1.383       .  S
C1050      F1056   1.384   1_565  S
F1052      C2519   1.383       .  S
C1057      C1058   1.407       .  A
C1057      C1062   1.409       .  A
C1057      H1064   1.073       .  S
C1058      C2531   1.413   1_545  A
C1059      C1060   1.405       .  A
C1059      C2530   1.411       .  A
C1059      C1066   1.519       .  S
C1060      C2533   1.411       .  A
C1060      H1065   1.083       .  S
C1061      C1611   1.485   1_545  S
C1061      C1062   1.416       .  A
C1061      C2532   1.409   1_545  A
C1062      C1063   1.519       .  S
C1063      F1067   1.385       .  S
C1063      F1068   1.382       .  S
C1063      F1069   1.383       .  S
C1066      F1070   1.384       .  S
C1066      F1071   1.382       .  S
C1066      F1072   1.384       .  S
C1073      C1074   1.409       .  A
C1073      C1078   1.411       .  A
C1073      H1080   1.083       .  S
C1074      C1075   1.415       .  A
C1075      C1076   1.411       .  A
C1075      C1082   1.519       .  S
C1076      C1077   1.414       .  A
C1076      H1081   1.082       .  S
C1077      C1078   1.423       .  A
C1078      C1079   1.521       .  S
C1079      F1083   1.385       .  S
C1079      F1084   1.384       .  S
C1079      F1085   1.383       .  S
C1082      F1086   1.383       .  S
C1082      F1087   1.384       .  S
C1082      F1088   1.384       .  S
C1089      C1090   1.403       .  A
C1089      C1094   1.408       .  A
C1089      H1096   1.082       .  S
C1090      C1091   1.412       .  A
C1091      C1092   1.403       .  A
C1091      C1098   1.519       .  S
C1092      C1093   1.404       .  A
C1092      H1097   1.084       .  S
C1093      C1094   1.415       .  A
C1094      C1095   1.517       .  S
C1095      F1099   1.385       .  S
C1095      F1100   1.382       .  S
C1095      F1101   1.383       .  S
C1098      F1102   1.382       .  S
C1098      F1103   1.384       .  S
C1098      F1104   1.384       .  S
C1105      C1106   1.412       .  A
C1105      C1110   1.403       .  A
C1105      H1112   1.082       .  S
C1106      C1107   1.419       .  A
C1107      C1108   1.412       .  A
C1107      C1114   1.519       .  S
C1108      C1109   1.410       .  A
C1108      H1113   1.084       .  S
C1109      C1110   1.414       .  A
C1110      C1111   1.521       .  S
C1111      F1115   1.385       .  S
C1111      F1116   1.383       .  S
C1111      F1117   1.382       .  S
C1114      F1118   1.384       .  S
C1114      F1119   1.383       .  S
C1114      F1120   1.385       .  S
C1121      C1122   1.409       .  A
C1121      C2598   1.409       .  A
C1121      H1128   1.084       .  S
C1122      C2595   1.420       .  A
C1123      C1124   1.410       .  A
C1123      C2594   1.426   1_545  A
C1123      C1130   1.521       .  S
C1124      C1125   1.398       .  A
C1124      H1129   1.082       .  S
C1125      C1126   1.419   1_545  A
C1126      C2593   1.410       .  A
C1126      C1127   1.519       .  S
C1127      F1132   1.383   1_565  S
C1127      F1133   1.382       .  S
C1127      F2603   1.384       .  S
C1130      F1134   1.383       .  S
C1130      F1135   1.384   1_545  S
C1130      F1136   1.384       .  S
F1131      C2599   1.385       .  S
C1137      C1138   1.410       .  A
C1137      C1142   1.404       .  A
C1137      H1144   1.083       .  S
C1138      C1139   1.415       .  A
C1139      C1140   1.405       .  A
C1139      C1146   1.520       .  S
C1140      C1141   1.410       .  A
C1140      H1145   1.083       .  S
C1141      C1142   1.414       .  A
C1142      C1143   1.520       .  S
C1143      F1147   1.384       .  S
C1143      F1148   1.383       .  S
C1143      F1149   1.383       .  S
C1146      F1151   1.384       .  S
C1146      F2622   1.383       .  S
C1146      F2624   1.385       .  S
F1150      C2618   1.383       .  S
F1152      C2618   1.385       .  S
C1153      C1154   1.416       .  A
C1153      C1158   1.406       .  A
C1153      H1160   1.081       .  S
C1154      C1155   1.419       .  A
C1155      C1156   1.407       .  A
C1155      C1162   1.521       .  S
C1156      C1157   1.410       .  A
C1156      H1161   1.082       .  S
C1157      C1158   1.412       .  A
C1158      C1159   1.520       .  S
C1159      F1163   1.385       .  S
C1159      F1164   1.384       .  S
C1159      F1165   1.383       .  S
C1162      F1166   1.384       .  S
C1162      F1167   1.383       .  S
C1162      F1168   1.385       .  S
C1169      C1170   1.415       .  A
C1169      C1174   1.406       .  A
C1169      H1176   1.082       .  S
C1170      C1171   1.419       .  A
C1171      C1172   1.405       .  A
C1171      C1178   1.520       .  S
C1172      C1173   1.404       .  A
C1172      H1177   1.083       .  S
C1173      C1174   1.408       .  A
C1174      C1175   1.518       .  S
C1175      F1179   1.385       .  S
C1175      F1180   1.383       .  S
C1175      F1181   1.383       .  S
C1178      F1182   1.384       .  S
C1178      F1183   1.383       .  S
C1178      F1184   1.385       .  S
C1185      C1186   1.410       .  A
C1185      C1190   1.403       .  A
C1185      H1192   1.083       .  S
C1186      C1187   1.414       .  A
C1187      C1188   1.403       .  A
C1187      C1194   1.519       .  S
C1188      C1189   1.407       .  A
C1188      H1193   1.083       .  S
C1189      C1190   1.412       .  A
C1190      C1191   1.520       .  S
C1191      F1195   1.385       .  S
C1191      F1196   1.383       .  S
C1191      F1197   1.383       .  S
C1194      F1198   1.383       .  S
C1194      F1199   1.383       .  S
C1194      F1200   1.385       .  S
C1201      C1202   1.401       .  A
C1201      C1206   1.409       .  A
C1201      H1208   1.083       .  S
C1202      C1203   1.410       .  A
C1203      C1204   1.405       .  A
C1203      C1210   1.518       .  S
C1204      C1205   1.408       .  A
C1204      H1209   1.083       .  S
C1205      C1206   1.421       .  A
C1206      C1207   1.520       .  S
C1207      F1211   1.385       .  S
C1207      F1212   1.383       .  S
C1207      F1213   1.383       .  S
C1210      F1214   1.383       .  S
C1210      F1215   1.383       .  S
C1210      F1216   1.384       .  S
C1217      C1218   1.405       .  A
C1217      C1222   1.404       .  A
C1217      H1224   1.083       .  S
C1218      C1219   1.412       .  A
C1219      C1220   1.408       .  A
C1219      C1226   1.518       .  S
C1220      C1221   1.413       .  A
C1220      H1225   1.082       .  S
C1221      C1222   1.417       .  A
C1222      C1223   1.520       .  S
C1223      F1227   1.385       .  S
C1223      F1228   1.384       .  S
C1223      F1229   1.382       .  S
C1226      F1230   1.383       .  S
C1226      F1231   1.382       .  S
C1226      F1232   1.385       .  S
C1233      C1234   1.415       .  A
C1233      C1238   1.408       .  A
C1233      H1240   1.083       .  S
C1234      C2707   1.415       .  A
C1235      C1236   1.408       .  A
C1235      C2706   1.417       .  A
C1235      C1242   1.517       .  S
C1236      C1237   1.401       .  A
C1236      H1241   1.085       .  S
C1237      C2710   1.412       .  A
C1238      C2709   1.414       .  A
C1238      C1239   1.519       .  S
C1239      F1243   1.385       .  S
C1239      F1244   1.384       .  S
C1239      F1245   1.383       .  S
C1242      F1246   1.383       .  S
C1242      F1247   1.382   1_545  S
C1242      F1248   1.385       .  S
C1249      C1250   1.408       .  A
C1249      C1254   1.408       .  A
C1249      H1256   1.084       .  S
C1250      C1251   1.410       .  A
C1251      C1252   1.406       .  A
C1251      C1258   1.517       .  S
C1252      C1253   1.411       .  A
C1252      H1257   1.083       .  S
C1253      C1254   1.417       .  A
C1254      C1255   1.520       .  S
C1255      F1259   1.385       .  S
C1255      F1260   1.384       .  S
C1255      F1261   1.383       .  S
C1258      F1262   1.382       .  S
C1258      F1263   1.384       .  S
C1258      F1264   1.385       .  S
C1265      C1266   1.400       .  A
C1265      C1270   1.403       .  A
C1265      H1272   1.084       .  S
C1266      C1267   1.424       .  A
C1267      C1268   1.404       .  A
C1267      C1274   1.522   1_545  S
C1268      C1269   1.398       .  A
C1268      H1273   1.084       .  S
C1269      C1270   1.420       .  A
C1270      C1271   1.521       .  S
C1271      F1275   1.385       .  S
C1271      F1276   1.382       .  S
C1271      F1277   1.383       .  S
C1274      F1278   1.382   1_565  S
C1274      F1279   1.382       .  S
C1274      F2752   1.385       .  S
F1280      C2746   1.385       .  S
C1281      C1282   1.401       .  A
C1281      C1286   1.407       .  A
C1281      H1288   1.084       .  S
C1282      C1283   1.411   1_655  A
C1283      C1284   1.405       .  A
C1283      C1290   1.518       .  S
C1284      C1285   1.407   1_455  A
C1284      H1289   1.084       .  S
C1285      C1286   1.419       .  A
C1286      C1287   1.518       .  S
C1287      F1291   1.385       .  S
C1287      F1292   1.382       .  S
C1287      F1293   1.382       .  S
C1290      F1294   1.383       .  S
C1290      F1295   1.383       .  S
C1290      F1296   1.385       .  S
C1297      C1298   1.413       .  A
C1297      C1302   1.409       .  A
C1297      H1304   1.081       .  S
C1298      C1299   1.420       .  A
C1299      C1300   1.407       .  A
C1299      C1306   1.520       .  S
C1300      C1301   1.405       .  A
C1300      H1305   1.082       .  S
C1301      C1302   1.411       .  A
C1302      C1303   1.518       .  S
C1303      F1307   1.384       .  S
C1303      F1308   1.384       .  S
C1303      F1309   1.383       .  S
C1306      F1310   1.382       .  S
C1306      F1311   1.383       .  S
C1306      F1312   1.385       .  S
C1313      C1314   1.415       .  A
C1313      C1318   1.403       .  A
C1313      H1320   1.081       .  S
C1314      C1315   1.421   1_655  A
C1315      C1316   1.405       .  A
C1315      C1322   1.522       .  S
C1316      C1317   1.406   1_455  A
C1316      H1321   1.083       .  S
C1317      C1318   1.411       .  A
C1318      C1319   1.520       .  S
C1319      F1323   1.385       .  S
C1319      F1324   1.382   1_655  S
C1319      F1325   1.384       .  S
C1322      F1326   1.383       .  S
C1322      F1327   1.384   1_455  S
C1322      F1328   1.385       .  S
C1329      C1330   1.415       .  A
C1329      C1334   1.409       .  A
C1329      H1336   1.081       .  S
C1330      C1331   1.419       .  A
C1331      C1332   1.405       .  A
C1331      C1338   1.522       .  S
C1332      C1333   1.413       .  A
C1332      H1337   1.081       .  S
C1333      C1334   1.416       .  A
C1334      C1335   1.520       .  S
C1335      F1339   1.385       .  S
C1335      F1340   1.383       .  S
C1335      F1341   1.383       .  S
C1338      F1342   1.384       .  S
C1338      F1343   1.383       .  S
C1338      F1344   1.385       .  S
C1345      C1346   1.408   1_455  A
C1345      C1350   1.406       .  A
C1345      H1352   1.084       .  S
C1346      C1347   1.412       .  A
C1347      C1348   1.404       .  A
C1347      C1354   1.519       .  S
C1348      C1349   1.407       .  A
C1348      H1353   1.084       .  S
C1349      C1350   1.413   1_655  A
C1350      C1351   1.519       .  S
C1351      F1355   1.385       .  S
C1351      F1356   1.383   1_455  S
C1351      F1357   1.383       .  S
C1354      F1358   1.384       .  S
C1354      F1359   1.382       .  S
C1354      F1360   1.384       .  S
C1361      C1362   1.412       .  A
C1361      C1366   1.406       .  A
C1361      H1368   1.082       .  S
C1362      C1363   1.412       .  A
C1363      C1364   1.404       .  A
C1363      C1370   1.520       .  S
C1364      C1365   1.415       .  A
C1364      H1369   1.081       .  S
C1365      C1366   1.417       .  A
C1366      C1367   1.521       .  S
C1367      F1371   1.385       .  S
C1367      F1372   1.384       .  S
C1367      F1373   1.383       .  S
C1370      F1374   1.384       .  S
C1370      F1375   1.382       .  S
C1370      F1376   1.385       .  S
C1377      C1378   1.410       .  A
C1377      C1382   1.408       .  A
C1377      H1384   1.082       .  S
C1378      C1379   1.413       .  A
C1379      C1380   1.406       .  A
C1379      C1386   1.520       .  S
C1380      C1381   1.414       .  A
C1380      H1385   1.082       .  S
C1381      C1382   1.420       .  A
C1382      C1383   1.521       .  S
C1383      F1387   1.385       .  S
C1383      F1388   1.383       .  S
C1383      F1389   1.384       .  S
C1386      F1390   1.382       .  S
C1386      F1391   1.384       .  S
C1386      F1392   1.385       .  S
C1393      C1394   1.413   1_545  A
C1393      C1398   1.409       .  A
C1393      H1400   1.082       .  S
C1394      C1498   1.497       .  S
C1394      C1395   1.419       .  A
C1395      C1396   1.412       .  A
C1395      C1402   1.518       .  S
C1396      C1397   1.408   1_565  A
C1396      H1401   1.083       .  S
C1397      C1398   1.413       .  A
C1398      C1399   1.519       .  S
C1399      F1403   1.384       .  S
C1399      F1404   1.384       .  S
C1399      F1405   1.383       .  S
C1402      F1406   1.382       .  S
C1402      F1408   1.385       .  S
C1402      F2879   1.384       .  S
F1407      C2874   1.383       .  S
C1409      C1410   1.415       .  A
C1409      C1414   1.404   1_545  A
C1409      H1416   1.082   1_545  S
C1410      C1411   1.421       .  A
C1411      C1412   1.408       .  A
C1411      C1418   1.520       .  S
C1412      C1413   1.404       .  A
C1412      H1417   1.084       .  S
C1413      C1414   1.406   1_545  A
C1414      C1415   1.519       .  S
C1415      F1419   1.384       .  S
C1415      F1420   1.383       .  S
C1415      F1421   1.383       .  S
C1418      F1423   1.383       .  S
C1418      F1424   1.385       .  S
C1418      F2894   1.384       .  S
F1422      C2890   1.383       .  S
C1425      C1426   1.401       .  A
C1425      C1430   1.405       .  A
C1425      H1432   1.083       .  S
C1426      C1427   1.426   1_545  A
C1427      C1428   1.403       .  A
C1427      C2906   1.523       .  S
C1428      C1429   1.397   1_565  A
C1428      H2905   1.084       .  S
C1429      C1430   1.421       .  A
C1430      C1431   1.521       .  S
C1431      F1435   1.385       .  S
C1431      F1436   1.382       .  S
C1431      F1437   1.382       .  S
H1433      C2900   1.082       .  S
C1434      C2899   1.524       .  S
C1434      F1438   1.383       .  S
C1434      F1439   1.384       .  S
C1434      F1440   1.385       .  S
C1441      C1442   1.407       .  A
C1441      C1446   1.408       .  A
C1441      H1448   1.084       .  S
C1442      C1443   1.412       .  A
C1443      C1444   1.408       .  A
C1443      C1450   1.519       .  S
C1444      C1445   1.411       .  A
C1444      H1449   1.083       .  S
C1445      C1446   1.418       .  A
C1446      C1447   1.519       .  S
C1447      F1451   1.385       .  S
C1447      F1452   1.383       .  S
C1447      F1453   1.383       .  S
C1450      F1454   1.382       .  S
C1450      F1455   1.384       .  S
C1450      F1456   1.385       .  S
C1457      C1458   1.409       .  A
C1457      C1462   1.404       .  A
C1457      H1464   1.083       .  S
C1458      C2931   1.414       .  A
C1459      C1460   1.405       .  A
C1459      C2930   1.415       .  A
C1459      C1466   1.519       .  S
C1460      C2933   1.407       .  A
C1460      H1465   1.083       .  S
C1461      C1462   1.413       .  A
C1461      C2932   1.409       .  A
C1462      C1463   1.519       .  S
C1463      F1467   1.385       .  S
C1463      F1468   1.383       .  S
C1463      F1469   1.383       .  S
C1466      F1471   1.383   1_565  S
C1466      F1472   1.384   1_565  S
C1466      F2942   1.384       .  S
F1470      C2938   1.383       .  S
O1473     Cu1481   2.044       .  S
O1474     Cu1481   2.047       .  S
O1474      C1484   1.286       .  A
O1475     Cu1481   1.951       .  S
O1476     Cu1481   1.949       .  S
O1476      C1486   1.269       .  A
O1477     Cu1482   2.035       .  S
O1478     Cu1482   2.036       .  S
O1478      C1485   1.282       .  A
O1479      C1484   1.267       .  A
O1480     Cu1482   1.975       .  S
O1480      C1483   1.273       .  A
C1483      C2914   1.499       .  S
C1484      C2898   1.493       .  S
C1485      C2933   1.479       .  S
C1486      C2885   1.489       .  S
O1487     Cu1495   1.967       .  S
O1487      C1497   1.271       .  A
O1489     Cu1495   2.040       .  S
O1489      C1499   1.282       .  A
O1490     Cu1495   2.038       .  S
O1490      C1500   1.283       .  A
O1491     Cu1496   1.962       .  S
O1491      C1500   1.270       .  A
O1492     Cu1496   1.965       .  S
O1492      C1499   1.271       .  A
O1493     Cu1496   2.059       .  S
O1493      C1498   1.285       .  A
O1494     Cu1496   2.058       .  S
O1494      C1497   1.285       .  A
Cu1495    Cu1496   2.362       .  S
C1497      C2850   1.495       .  S
C1499      C2834   1.498       .  S
C1500      C2930   1.480       .  S
O1501     Cu1509   2.028       .  S
O1501      C1511   1.280   1_455  A
O1502     Cu1509   2.028       .  S
O1502      C1512   1.280   1_455  A
O1503     Cu1509   1.984   1_655  S
O1503      C1513   1.274       .  A
O1504     Cu1509   1.979       .  S
O1504      C1514   1.274       .  A
O1505     Cu1510   2.035   1_455  S
O1505      C1514   1.281       .  A
O1506     Cu1510   2.039       .  S
O1506      C1513   1.282       .  A
O1507     Cu1510   1.972       .  S
O1507      C1512   1.271       .  A
O1508     Cu1510   1.967       .  S
O1508      C1511   1.272       .  A
Cu1509    Cu1510   2.364   1_455  S
C1511      C2818   1.484       .  S
C1512      C2789   1.465   1_655  S
C1513      C2917   1.503       .  S
C1514      C2802   1.498       .  S
O1515     Cu1523   1.991   1_455  S
O1515      C1525   1.274       .  A
O1516     Cu1523   1.991       .  S
O1516      C1526   1.273       .  A
O1517     Cu1523   2.035       .  S
O1517      C1527   1.282       .  A
O1518     Cu1523   2.036       .  S
O1518      C1528   1.282       .  A
O1519     Cu1524   1.956       .  S
O1519      C1528   1.270   1_455  A
O1520     Cu1524   1.958       .  S
O1520      C1527   1.271   1_455  A
O1521     Cu1524   2.047   1_655  S
O1521      C1526   1.284       .  A
O1522     Cu1524   2.047       .  S
O1522      C1525   1.283       .  A
Cu1523    Cu1524   2.367   1_655  S
C1525      C2770   1.491       .  S
C1526      C2853   1.489       .  S
C1527      C2821   1.482       .  S
C1528      C2757   1.478       .  S
O1529     Cu1537   2.045       .  S
O1529      C1539   1.283       .  A
O1530     Cu1537   2.041       .  S
O1530      C1540   1.285       .  A
O1531     Cu1537   1.968       .  S
O1531      C1541   1.269       .  A
O1532     Cu1537   1.989       .  S
O1532      C1542   1.274       .  A
O1533     Cu1538   2.037       .  S
O1533      C1542   1.282       .  A
O1534     Cu1538   2.040       .  S
O1534      C1541   1.284       .  A
O1535     Cu1538   1.940       .  S
O1535      C1540   1.265       .  A
O1536     Cu1538   1.946       .  S
O1536      C1539   1.270       .  A
Cu1537    Cu1538   2.366       .  S
C1539      C2709   1.489       .  S
C1540      C2738   1.471       .  S
C1541      C2901   1.484       .  S
C1542      C2725   1.487       .  S
O1543     Cu1551   1.953       .  S
O1543      C1553   1.269       .  A
O1544     Cu1551   1.943       .  S
O1544      C1554   1.265       .  A
O1545     Cu1551   2.054       .  S
O1545      C1555   1.285       .  A
O1546     Cu1551   2.051       .  S
O1546      C1556   1.284       .  A
O1547     Cu1552   1.989       .  S
O1547      C1556   1.274       .  A
O1548     Cu1552   1.974       .  S
O1548      C1555   1.272       .  A
O1549     Cu1552   2.038       .  S
O1549      C1554   1.284       .  A
O1550     Cu1552   2.044       .  S
O1550      C1553   1.283       .  A
Cu1551    Cu1552   2.366       .  S
C1553      C2677   1.476       .  S
C1554      C2741   1.470       .  S
C1555      C2690   1.496       .  S
C1556      C2869   1.504       .  S
O1557     Cu1565   2.040       .  S
O1557      C1567   1.282       .  A
O1558     Cu1565   2.033       .  S
O1558      C1568   1.281       .  A
O1559     Cu1565   1.978       .  S
O1559      C1569   1.273       .  A
O1560     Cu1565   1.986       .  S
O1560      C1570   1.273       .  A
O1561     Cu1566   2.038       .  S
O1561      C1570   1.282       .  A
O1562     Cu1566   2.039       .  S
O1562      C1569   1.282       .  A
O1563     Cu1566   1.972       .  S
O1563      C1568   1.272       .  A
O1564     Cu1566   1.979       .  S
O1564      C1567   1.273       .  A
Cu1565    Cu1566   2.365       .  S
C1567      C2642   1.497       .  S
C1568      C2658   1.474       .  S
C1569      C2805   1.502       .  S
C1570      C2722   1.480       .  S
O1571     Cu1579   1.986       .  S
O1571      C1581   1.272       .  A
O1572     Cu1579   1.976       .  S
O1572      C1582   1.273       .  A
O1573     Cu1579   2.033       .  S
O1573      C1583   1.282       .  A
O1574     Cu1579   2.038       .  S
O1574      C1584   1.282       .  A
O1575     Cu1580   1.967       .  S
O1575      C1584   1.271       .  A
O1576     Cu1580   1.968       .  S
O1576      C1583   1.271       .  A
O1577     Cu1580   2.055       .  S
O1577      C1582   1.284       .  A
O1578     Cu1580   2.051       .  S
O1578      C1581   1.284       .  A
Cu1579    Cu1580   2.365       .  S
C1581      C2773   1.483       .  S
C1582      C2693   1.505       .  S
C1583      C2661   1.474       .  S
C1584      C2626   1.495       .  S
O1585     Cu1593   1.956       .  S
O1585      C1595   1.267       .  A
O1586     Cu1593   1.949       .  S
O1586      C1596   1.270       .  A
O1587     Cu1593   2.053       .  S
O1587      C1597   1.285       .  A
O1588     Cu1593   2.053       .  S
O1588      C1598   1.285       .  A
O1589     Cu1594   1.979       .  S
O1589      C1598   1.271       .  A
O1590     Cu1594   1.973       .  S
O1590      C1597   1.271       .  A
O1591     Cu1594   2.026       .  S
O1591      C1596   1.281       .  A
O1592     Cu1594   2.035       .  S
O1592      C1595   1.284       .  A
Cu1593    Cu1594   2.371       .  S
C1595      C2562   1.475       .  S
C1596      C2610   1.470       .  S
C1597      C2581   1.480       .  S
C1598      C2594   1.489       .  S
O1599     Cu1607   2.029       .  S
O1599      C1609   1.281       .  A
O1600     Cu1607   2.021       .  S
O1600      C1610   1.280       .  A
O1601     Cu1607   1.965       .  S
O1601      C1611   1.272       .  A
O1602     Cu1607   1.976       .  S
O1602      C1612   1.273       .  A
O1603     Cu1608   2.040   1_565  S
O1603      C1612   1.282       .  A
O1605     Cu1608   1.956   1_565  S
O1605      C1610   1.270       .  A
O1606     Cu1608   1.966       .  S
O1606      C1609   1.270   1_545  A
Cu1607    Cu1608   2.371   1_565  S
C1609      C2514   1.464       .  S
C1610      C2613   1.472       .  S
C1612      C2546   1.490       .  S
O1613     Cu1621   1.974       .  S
O1613      C1623   1.272       .  A
O1614     Cu1621   1.979       .  S
O1614      C1624   1.272       .  A
O1615     Cu1621   2.051       .  S
O1615      C1625   1.284       .  A
O1616     Cu1621   2.047       .  S
O1616      C1626   1.284       .  A
O1617     Cu1622   1.955       .  S
O1617      C1626   1.269       .  A
O1618     Cu1622   1.962       .  S
O1618      C1625   1.269       .  A
O1619     Cu1622   2.055       .  S
O1619      C1624   1.285       .  A
O1620     Cu1622   2.055       .  S
O1620      C1623   1.285       .  A
Cu1621    Cu1622   2.367       .  S
C1623      C2578   1.493       .  S
C1624      C2482   1.499       .  S
C1625      C2466   1.475       .  S
C1626      C2498   1.477       .  S
O1627     Cu1635   2.036       .  S
O1627      C1637   1.282       .  A
O1628     Cu1635   2.036       .  S
O1628      C1638   1.282       .  A
O1629     Cu1635   1.954       .  S
O1629      C1639   1.271       .  A
O1630     Cu1635   1.961       .  S
O1630      C1640   1.270       .  A
O1631     Cu1636   2.040       .  S
O1631      C1640   1.283       .  A
O1632     Cu1636   2.043       .  S
O1632      C1639   1.283       .  A
O1633     Cu1636   1.982       .  S
O1633      C1638   1.273       .  A
O1634     Cu1636   1.974       .  S
O1634      C1637   1.273       .  A
Cu1635    Cu1636   2.368       .  S
C1637      C2450   1.489       .  S
C1638      C2549   1.481       .  S
C1639      C2434   1.486       .  S
C1640      C2501   1.477       .  S
O1641     Cu1649   2.036       .  S
O1641      C1651   1.282       .  A
O1642     Cu1649   2.029       .  S
O1642      C1652   1.281       .  A
O1643     Cu1649   1.982       .  S
O1643      C1653   1.273       .  A
O1644     Cu1649   1.996       .  S
O1644      C1654   1.276       .  A
O1645     Cu1650   2.031       .  S
O1645      C1654   1.281       .  A
O1646     Cu1650   2.031       .  S
O1646      C1653   1.281       .  A
O1647     Cu1650   1.955       .  S
O1647      C1652   1.271       .  A
O1648     Cu1650   1.958       .  S
O1648      C1651   1.271       .  A
Cu1649    Cu1650   2.366       .  S
C1651      C2386   1.489       .  S
C1652      C2418   1.476       .  S
C1653      C2453   1.480       .  S
C1654      C2402   1.497       .  S
O1655     Cu1663   1.968       .  S
O1655      C1665   1.272       .  A
O1656     Cu1663   1.980       .  S
O1656      C1666   1.273       .  A
O1657     Cu1663   2.037       .  S
O1657      C1667   1.282       .  A
O1658     Cu1663   2.031       .  S
O1658      C1668   1.282       .  A
O1659     Cu1664   1.957       .  S
O1659      C1668   1.270       .  A
O1660     Cu1664   1.954       .  S
O1660      C1667   1.270       .  A
O1661     Cu1664   2.055       .  S
O1661      C1666   1.284       .  A
O1662     Cu1664   2.055       .  S
O1662      C1665   1.284       .  A
Cu1663    Cu1664   2.363       .  S
C1665      C2370   1.502       .  S
C1666      C2485   1.491       .  S
C1667      C2354   1.489       .  S
C1668      C2421   1.478       .  S
O1669     Cu1677   2.040       .  S
O1669      C1679   1.283   1_455  A
O1670     Cu1677   2.050       .  S
O1670      C1680   1.284   1_455  A
O1671     Cu1677   1.979   1_655  S
O1671      C1681   1.272       .  A
O1672     Cu1677   1.967       .  S
O1672      C1682   1.270       .  A
O1673     Cu1678   2.044   1_455  S
O1673      C1682   1.284       .  A
O1674     Cu1678   2.046       .  S
O1674      C1681   1.283       .  A
O1675     Cu1678   1.961       .  S
O1675      C1680   1.271       .  A
O1676     Cu1678   1.960       .  S
O1676      C1679   1.269       .  A
Cu1677    Cu1678   2.369   1_455  S
C1679      C2341   1.468       .  S
C1680      C2322   1.498       .  S
C1681      C2405   1.487       .  S
C1682      C2530   1.479       .  S
O1683     Cu1691   1.978       .  S
O1683      C1693   1.273       .  A
O1684     Cu1691   1.990   1_455  S
O1684      C1694   1.273       .  A
O1685     Cu1691   2.037       .  S
O1685      C1695   1.282   1_655  A
O1686     Cu1691   2.032       .  S
O1686      C1696   1.282   1_655  A
O1687     Cu1692   1.958       .  S
O1687      C1696   1.270       .  A
O1688     Cu1692   1.959       .  S
O1688      C1695   1.270       .  A
O1689     Cu1692   2.042       .  S
O1689      C1694   1.283       .  A
O1690     Cu1692   2.043   1_655  S
O1690      C1693   1.283       .  A
Cu1691    Cu1692   2.371   1_655  S
C1693      C2373   1.492       .  S
C1694      C2597   1.481       .  S
C1695      C2309   1.480       .  S
C1696      C2338   1.466       .  S
O1697     Cu1705   2.047       .  S
O1697      C1707   1.283       .  A
O1698     Cu1705   2.050       .  S
O1698      C1708   1.284       .  A
O1699     Cu1705   1.957       .  S
O1699      C1709   1.269       .  A
O1700     Cu1705   1.959       .  S
O1700      C1710   1.271       .  A
O1701     Cu1706   2.036       .  S
O1701      C1710   1.282       .  A
O1702     Cu1706   2.032       .  S
O1702      C1709   1.282       .  A
O1703     Cu1706   1.966       .  S
O1703      C1708   1.271       .  A
O1704     Cu1706   1.980       .  S
O1704      C1707   1.273       .  A
Cu1705    Cu1706   2.366       .  S
C1707      C2274   1.499       .  S
C1708      C2258   1.488       .  S
C1709      C2290   1.467       .  S
C1710      C2389   1.490       .  S
O1711     Cu1719   1.955       .  S
O1711      C1721   1.269       .  A
O1712     Cu1719   1.960       .  S
O1712      C1722   1.271       .  A
O1713     Cu1719   2.039       .  S
O1713      C1723   1.282       .  A
O1714     Cu1719   2.037       .  S
O1714      C1724   1.282       .  A
O1715     Cu1720   1.971       .  S
O1715      C1724   1.272       .  A
O1716     Cu1720   1.987       .  S
O1716      C1723   1.274       .  A
O1717     Cu1720   2.042       .  S
O1717      C1722   1.283       .  A
O1718     Cu1720   2.035       .  S
O1718      C1721   1.282       .  A
Cu1719    Cu1720   2.370       .  S
C1721      C2293   1.466       .  S
C1722      C2837   1.482       .  S
C1723      C2245   1.491       .  S
C1724      C2226   1.483       .  S
O1725     Cu1733   1.960       .  S
O1725      C1735   1.271   1_455  A
O1726     Cu1733   1.958       .  S
O1726      C1736   1.270   1_455  A
O1727     Cu1733   2.054   1_655  S
O1727      C1737   1.284       .  A
O1728     Cu1733   2.056       .  S
O1728      C1738   1.284       .  A
O1729     Cu1734   1.960   1_455  S
O1729      C1738   1.271       .  A
O1730     Cu1734   1.951       .  S
O1730      C1737   1.270       .  A
O1731     Cu1734   2.023       .  S
O1731      C1736   1.280       .  A
O1732     Cu1734   2.027       .  S
O1732      C1735   1.281       .  A
Cu1733    Cu1734   2.360   1_455  S
C1735      C2754   1.492       .  S
C1736      C2213   1.472       .  S
C1737      C2229   1.492       .  S
O1739     Cu1747   2.049       .  S
O1739      C1749   1.284       .  A
O1740     Cu1747   2.046   1_445  S
O1740      C1750   1.283   1_545  A
O1741     Cu1747   1.955       .  S
O1741      C1751   1.271       .  A
O1742     Cu1747   1.961   1_545  S
O1742      C1752   1.271   1_545  A
O1743     Cu1748   2.031       .  S
O1743      C1752   1.281   1_455  A
O1744     Cu1748   2.028       .  S
O1744      C1751   1.281   1_455  A
O1745     Cu1748   1.972       .  S
O1745      C1750   1.272       .  A
O1746     Cu1748   1.980   1_655  S
O1746      C1749   1.273       .  A
Cu1747    Cu1748   2.364   1_655  S
C1749      C2277   1.489       .  S
C1750      C2178   1.493       .  S
C1751      C2210   1.474       .  S
C1752      C2325   1.494       .  S
O1753     Cu1761   1.959       .  S
O1753      C1763   1.271       .  A
O1754     Cu1761   1.967       .  S
O1754      C1764   1.269       .  A
O1755     Cu1761   2.048       .  S
O1755      C1765   1.283       .  A
O1756     Cu1761   2.043       .  S
O1756      C1766   1.283       .  A
O1757     Cu1762   1.987       .  S
O1757      C1766   1.273       .  A
O1758     Cu1762   1.976       .  S
O1758      C1765   1.272       .  A
O1759     Cu1762   2.038       .  S
O1759      C1764   1.283       .  A
O1760     Cu1762   2.046       .  S
O1760      C1763   1.283       .  A
Cu1761    Cu1762   2.370       .  S
C1763      C2629   1.490       .  S
C1764      C2162   1.474       .  S
C1765      C2146   1.481       .  S
C1766      C2194   1.480       .  S
O1767     Cu1775   2.040       .  S
O1767      C1777   1.282       .  A
O1768     Cu1775   2.041       .  S
O1768      C1778   1.285       .  A
O1769     Cu1775   1.972       .  S
O1769      C1779   1.270       .  A
O1770     Cu1775   1.963       .  S
O1770      C1780   1.269       .  A
O1771     Cu1776   2.039       .  S
O1771      C1780   1.283       .  A
O1772     Cu1776   2.042       .  S
O1772      C1779   1.283       .  A
O1773     Cu1776   1.980       .  S
O1773      C1778   1.270       .  A
O1774     Cu1776   1.970       .  S
O1774      C1777   1.273       .  A
Cu1775    Cu1776   2.370       .  S
C1777      C2181   1.486       .  S
C1778      C2130   1.490       .  S
C1779      C2517   1.470       .  S
C1780      C2165   1.475       .  S
O1781     Cu1789   2.066       .  S
O1781      C1791   1.288       .  A
O1782     Cu1789   2.054       .  S
O1782      C1792   1.285       .  A
O1783     Cu1789   1.957       .  S
O1783      C1793   1.269       .  A
O1784     Cu1789   1.962       .  S
O1784      C1794   1.269       .  A
O1785     Cu1790   2.038       .  S
O1785      C1794   1.282       .  A
O1786     Cu1790   2.029       .  S
O1786      C1793   1.281       .  A
O1787     Cu1790   1.959       .  S
O1787      C1792   1.271       .  A
O1788     Cu1790   1.962       .  S
O1788      C1791   1.266       .  A
Cu1789    Cu1790   2.366       .  S
C1791      C2133   1.502       .  S
C1792      C2261   1.499       .  S
C1793      C2114   1.466       .  S
C1794      C2437   1.468       .  S
O1795     Cu1803   1.979       .  S
O1795      C1805   1.274       .  A
O1796     Cu1803   1.982       .  S
O1796      C1806   1.273       .  A
O1797     Cu1803   2.032       .  S
O1797      C1807   1.282       .  A
O1798     Cu1803   2.035       .  S
O1798      C1808   1.282       .  A
O1799     Cu1804   1.964       .  S
O1799      C1808   1.269       .  A
O1800     Cu1804   1.960       .  S
O1800      C1807   1.270       .  A
O1801     Cu1804   2.046       .  S
O1801      C1806   1.284       .  A
O1802     Cu1804   2.051       .  S
O1802      C1805   1.284       .  A
Cu1803    Cu1804   2.370       .  S
C1805      C2242   1.501       .  S
C1806      C2149   1.491       .  S
C1807      C2117   1.469       .  S
C1808      C2674   1.464       .  S
O1809     Cu1817   1.962       .  S
O1809      C1819   1.270       .  A
O1810     Cu1817   1.955       .  S
O1810      C1820   1.268       .  A
O1811     Cu1817   2.051       .  S
O1811      C1821   1.286       .  A
O1812     Cu1817   2.047       .  S
O1812      C1822   1.286       .  A
O1813     Cu1818   1.962       .  S
O1813      C1822   1.267       .  A
O1814     Cu1818   1.975       .  S
O1814      C1821   1.269       .  A
O1815     Cu1818   2.046       .  S
O1815      C1820   1.283       .  A
O1816     Cu1818   2.045       .  S
O1816      C1819   1.283       .  A
Cu1817    Cu1818   2.367       .  S
C1819      C2098   1.480       .  S
C1820      C2565   1.465       .  S
C1821      C2085   1.495       .  S
C1822      C2066   1.494       .  S
O1823     Cu1831   2.051       .  S
O1823      C1833   1.285       .  A
O1824     Cu1831   2.056       .  S
O1824      C1834   1.285       .  A
O1825     Cu1831   1.981       .  S
O1825      C1835   1.272       .  A
O1826     Cu1831   1.974       .  S
O1826      C1836   1.271       .  A
O1827     Cu1832   2.065       .  S
O1827      C1836   1.286       .  A
O1828     Cu1832   2.059       .  S
O1828      C1835   1.285       .  A
O1829     Cu1832   1.963       .  S
O1829      C1834   1.271       .  A
O1830     Cu1832   1.965       .  S
O1830      C1833   1.270       .  A
Cu1831    Cu1832   2.365       .  S
C1833      C2101   1.482       .  S
C1834      C2645   1.498       .  S
C1835      C2050   1.489       .  S
C1836      C2034   1.496       .  S
O1837     Cu1845   1.951       .  S
O1837      C1847   1.269       .  A
O1838     Cu1845   1.950       .  S
O1838      C1848   1.269       .  A
O1839     Cu1845   2.050       .  S
O1839      C1849   1.284       .  A
O1840     Cu1845   2.048       .  S
O1840      C1850   1.284       .  A
O1841     Cu1846   1.967       .  S
O1841      C1850   1.270       .  A
O1842     Cu1846   1.977       .  S
O1842      C1849   1.272       .  A
O1843     Cu1846   2.042       .  S
O1843      C1848   1.283       .  A
O1844     Cu1846   2.036       .  S
O1844      C1847   1.283       .  A
Cu1845    Cu1846   2.367       .  S
C1847      C2021   1.471       .  S
C1848      C2357   1.486       .  S
C1849      C2002   1.495       .  S
C1850      C1986   1.477       .  S
O1851     Cu1859   2.049       .  S
O1851      C1861   1.287       .  A
O1852     Cu1859   2.050       .  S
O1852      C1862   1.284       .  A
O1853     Cu1859   1.943       .  S
O1853      C1863   1.268       .  A
O1854     Cu1859   1.949       .  S
O1854      C1864   1.269       .  A
O1855     Cu1860   2.050       .  S
O1855      C1864   1.284       .  A
O1856     Cu1860   2.041       .  S
O1856      C1863   1.283       .  A
O1857     Cu1860   1.970       .  S
O1857      C1862   1.271       .  A
O1858     Cu1860   1.990       .  S
O1858      C1861   1.270       .  A
Cu1859    Cu1860   2.365       .  S
C1861      C1970   1.505       .  S
C1862      C1957   1.481       .  S
C1863      C2018   1.469       .  S
C1864      C2882   1.491       .  S
O1865     Cu1873   1.973       .  S
O1865      C1875   1.270       .  A
O1866     Cu1873   1.984   1_545  S
O1866      C1876   1.274   1_545  A
O1867     Cu1873   2.043       .  S
O1867      C1877   1.283       .  A
O1868     Cu1873   2.038       .  S
O1868      C1878   1.282       .  A
O1869     Cu1874   1.965       .  S
O1869      C1878   1.271       .  A
O1870     Cu1874   1.975       .  S
O1870      C1877   1.273       .  A
O1871     Cu1874   2.041       .  S
O1871      C1876   1.282       .  A
O1872     Cu1874   2.034       .  S
O1872      C1875   1.283       .  A
Cu1873    Cu1874   2.364       .  S
C1875      C2069   1.483       .  S
C1876      C2005   1.494   1_565  S
C1877      C2469   1.495       .  S
C1878      C1938   1.486       .  S
O1879     Cu1887   2.050       .  S
O1879      C1889   1.284       .  A
O1880     Cu1887   2.052   1_565  S
O1880      C1890   1.284       .  A
O1881     Cu1887   1.968       .  S
O1881      C1891   1.270       .  A
O1882     Cu1887   1.964       .  S
O1882      C1892   1.271   1_545  A
O1883     Cu1888   2.041       .  S
O1883      C1892   1.283       .  A
O1884     Cu1888   2.044       .  S
O1884      C1891   1.283   1_565  A
O1885     Cu1888   1.985       .  S
O1885      C1890   1.273       .  A
O1886     Cu1888   1.969       .  S
O1886      C1889   1.272   1_565  A
Cu1887    Cu1888   2.365   1_545  S
C1889      C1954   1.495       .  S
C1890      C2053   1.498       .  S
C1891      C2706   1.475       .  S
C1892      C1941   1.486       .  S
O1893     Cu1901   1.959       .  S
O1893      C1903   1.268       .  A
O1894     Cu1901   1.964       .  S
O1894      C1904   1.270       .  A
O1895     Cu1901   2.051       .  S
O1895      C1905   1.285       .  A
O1896     Cu1901   2.048   1_655  S
O1896      C1906   1.284       .  A
O1897     Cu1902   1.967       .  S
O1897      C1906   1.271       .  A
O1898     Cu1902   1.974   1_455  S
O1898      C1905   1.270       .  A
O1899     Cu1902   2.030       .  S
O1899      C1904   1.281   1_655  A
O1900     Cu1902   2.030       .  S
O1900      C1903   1.283   1_655  A
Cu1901    Cu1902   2.372   1_455  S
C1903      C1922   1.470       .  S
C1904      C2306   1.463       .  S
C1905      C2082   1.489       .  S
C1906      C1989   1.483       .  S
O1907     Cu1915   2.033       .  S
O1907      C1917   1.282       .  A
O1908     Cu1915   2.033       .  S
O1908      C1918   1.283       .  A
O1909     Cu1915   1.976       .  S
O1909      C1919   1.272       .  A
O1910     Cu1915   1.980   1_655  S
O1910      C1920   1.271       .  A
O1911     Cu1916   2.061       .  S
O1911      C1920   1.286       .  A
O1912     Cu1916   2.062   1_455  S
O1912      C1919   1.286       .  A
O1913     Cu1916   1.962       .  S
O1913      C1918   1.268   1_655  A
O1914     Cu1916   1.966       .  S
O1914      C1917   1.271   1_655  A
Cu1915    Cu1916   2.365   1_455  S
C1917      C2786   1.480       .  S
C1918      C1925   1.470       .  S
C1919      C2037   1.506       .  S
C1920      C1973   1.494       .  S
C1921      C1922   1.399   1_655  A
C1921      C1926   1.403       .  A
C1921      H1928   1.083       .  S
C1922      C1923   1.421       .  A
C1923      C1924   1.403   1_556  A
C1923      C1930   1.521       .  S
C1924      C1925   1.399       .  A
C1924      H1929   1.083       .  S
C1925      C1926   1.421   1_454  A
C1926      C1927   1.521   1_556  S
C1927      F1931   1.385   1_554  S
C1927      F1932   1.382       .  S
C1927      F1933   1.382       .  S
C1930      F1934   1.383       .  S
C1930      F1935   1.382       .  S
C1930      F1936   1.385       .  S
C1937      C1938   1.411       .  A
C1937      C1942   1.406   1_556  A
C1937      H1944   1.082       .  S
C1938      C1939   1.415   1_565  A
C1939      C1940   1.407   1_556  A
C1939      C1946   1.520       .  S
C1940      C1941   1.411   1_545  A
C1940      H1945   1.082       .  S
C1941      C1942   1.415       .  A
C1942      C1943   1.520       .  S
C1943      F1947   1.385   1_554  S
C1943      F1948   1.384       .  S
C1943      F1949   1.383       .  S
C1946      F1950   1.383       .  S
C1946      F1951   1.383       .  S
C1946      F1952   1.384       .  S
C1953      C1958   1.407       .  A
C1953      H1960   1.082       .  S
C1954      C1955   1.419       .  A
C1955      C1956   1.408       .  A
C1955      C1962   1.519       .  S
C1956      H1961   1.083       .  S
C1957      C1958   1.412       .  A
C1958      C1959   1.519       .  S
C1959      F1963   1.385       .  S
C1959      F1964   1.383       .  S
C1959      F1965   1.382       .  S
C1962      F1966   1.385       .  S
C1962      F1967   1.383       .  S
C1962      F1968   1.383       .  S
C1969      C1970   1.403       .  A
C1969      C1974   1.407       .  A
C1969      H1976   1.081       .  S
C1970      C1971   1.433       .  A
C1971      C1972   1.416       .  A
C1971      C1978   1.522       .  S
C1972      C1973   1.401       .  A
C1972      H1977   1.082       .  S
C1973      C1974   1.424       .  A
C1974      C1975   1.522       .  S
C1975      F1979   1.385       .  S
C1975      F1980   1.382       .  S
C1975      F1981   1.382       .  S
C1978      F1982   1.383       .  S
C1978      F1983   1.383       .  S
C1978      F1984   1.385       .  S
C1985      C1986   1.407       .  A
C1985      C1990   1.409       .  A
C1985      H1992   1.084       .  S
C1986      C1987   1.412       .  A
C1987      C1988   1.405       .  A
C1987      C1994   1.519       .  S
C1988      C1989   1.408       .  A
C1988      H1993   1.084       .  S
C1989      C1990   1.416       .  A
C1990      C1991   1.518       .  S
C1991      F1995   1.385       .  S
C1991      F1996   1.383       .  S
C1991      F1997   1.383       .  S
C1994      F1998   1.382       .  S
C1994      F1999   1.383       .  S
C1994      F2000   1.385       .  S
C2001      C2006   1.409   1_545  A
C2001      H2008   1.082   1_545  S
C2002      C2003   1.419       .  A
C2003      C2010   1.520       .  S
C2004      C2005   1.410       .  A
C2005      C2006   1.415   1_545  A
C2006      C2007   1.520       .  S
C2007      F2011   1.385       .  S
C2007      F2012   1.384       .  S
C2007      F2013   1.383       .  S
C2010      F2014   1.383       .  S
C2010      F2015   1.383       .  S
C2010      F2016   1.385       .  S
C2017      C2018   1.408       .  A
C2017      C2022   1.402   1_554  A
C2017      H2024   1.084       .  S
C2018      C2019   1.409       .  A
C2019      C2020   1.404   1_554  A
C2019      C2026   1.518       .  S
C2020      C2021   1.409       .  A
C2020      H2025   1.084       .  S
C2021      C2022   1.411       .  A
C2022      C2023   1.519       .  S
C2023      F2027   1.385       .  S
C2023      F2028   1.383       .  S
C2023      F2029   1.383       .  S
C2026      F2030   1.384       .  S
C2026      F2031   1.382       .  S
C2026      F2032   1.384   1_554  S
C2033      C2034   1.411       .  A
C2033      C2038   1.412       .  A
C2033      H2040   1.084       .  S
C2034      C2035   1.414       .  A
C2035      C2036   1.411       .  A
C2035      C2042   1.519       .  S
C2036      C2037   1.416       .  A
C2036      H2041   1.083       .  S
C2037      C2038   1.420       .  A
C2038      C2039   1.520       .  S
C2039      F2043   1.385       .  S
C2039      F2044   1.383       .  S
C2039      F2045   1.383       .  S
C2042      F2046   1.384       .  S
C2042      F2047   1.382       .  S
C2042      F2048   1.385       .  S
C2049      C2050   1.407       .  A
C2049      C2054   1.411       .  A
C2049      H2056   1.086       .  S
C2050      C2051   1.414       .  A
C2051      C2052   1.411       .  A
C2051      C2058   1.518       .  S
C2052      C2053   1.412       .  A
C2052      H2057   1.085       .  S
C2053      C2054   1.420       .  A
C2054      C2055   1.519       .  S
C2055      F2059   1.385       .  S
C2055      F2060   1.384       .  S
C2055      F2061   1.383   1_565  S
C2058      F2062   1.382       .  S
C2058      F2063   1.384       .  S
C2058      F2064   1.385       .  S
C2065      C2066   1.404       .  A
C2065      C2070   1.406       .  A
C2065      H2072   1.083       .  S
C2066      C2067   1.433       .  A
C2067      C2068   1.406       .  A
C2067      C2074   1.526       .  S
C2068      C2069   1.397       .  A
C2068      H2073   1.083       .  S
C2069      C2070   1.422       .  A
C2070      C2071   1.522       .  S
C2071      F2075   1.385   1_565  S
C2071      F2076   1.383   1_565  S
C2071      F2077   1.384       .  S
C2074      F2078   1.381       .  S
C2074      F2079   1.383       .  S
C2074      F2080   1.385       .  S
C2081      C2082   1.399       .  A
C2081      C2086   1.410       .  A
C2081      H2088   1.082       .  S
C2082      C2083   1.425       .  A
C2083      C2084   1.409       .  A
C2083      C2090   1.522       .  S
C2084      C2085   1.402       .  A
C2084      H2089   1.081       .  S
C2085      C2086   1.429       .  A
C2086      C2087   1.522       .  S
C2087      F2091   1.385       .  S
C2087      F2092   1.383       .  S
C2087      F2093   1.384       .  S
C2090      F2094   1.383       .  S
C2090      F2095   1.383       .  S
C2090      F2096   1.385       .  S
C2097      C2098   1.407       .  A
C2097      C2102   1.406       .  A
C2097      H2104   1.083       .  S
C2098      C2099   1.415       .  A
C2099      C2100   1.408       .  A
C2099      C2106   1.519       .  S
C2100      C2101   1.409   1_556  A
C2100      H2105   1.083   1_556  S
C2101      C2102   1.414   1_554  A
C2102      C2103   1.517   1_556  S
C2103      F2107   1.385   1_554  S
C2103      F2108   1.383       .  S
C2103      F2109   1.382       .  S
C2106      F2110   1.384       .  S
C2106      F2111   1.382       .  S
C2106      F2112   1.385       .  S
C2113      C2114   1.406       .  A
C2113      C2118   1.404       .  A
C2113      H2120   1.081       .  S
C2114      C2115   1.410       .  A
C2115      C2116   1.402       .  A
C2115      C2122   1.519       .  S
C2116      C2117   1.406       .  A
C2116      H2121   1.073       .  S
C2117      C2118   1.412       .  A
C2118      C2119   1.518       .  S
C2119      F2123   1.385       .  S
C2119      F2124   1.382       .  S
C2119      F2125   1.383       .  S
C2122      F2126   1.384       .  S
C2122      F2127   1.382       .  S
C2122      F2128   1.385       .  S
C2129      C2130   1.396       .  A
C2129      C2134   1.406       .  A
C2129      H2136   1.081       .  S
C2130      C2131   1.425       .  A
C2131      C2132   1.412       .  A
C2131      C2138   1.522       .  S
C2132      C2133   1.405       .  A
C2132      H2137   1.081       .  S
C2133      C2134   1.434       .  A
C2134      C2135   1.524       .  S
C2135      F2139   1.385       .  S
C2135      F2140   1.381       .  S
C2135      F2141   1.383       .  S
C2138      F2142   1.383       .  S
C2138      F2143   1.383       .  S
C2138      F2144   1.385       .  S
C2145      C2146   1.405       .  A
C2145      C2150   1.407       .  A
C2145      H2152   1.083       .  S
C2146      C2147   1.413       .  A
C2147      C2148   1.409       .  A
C2147      C2154   1.518       .  S
C2148      C2149   1.411       .  A
C2148      H2153   1.082       .  S
C2149      C2150   1.418       .  A
C2150      C2151   1.516       .  S
C2151      F2155   1.385       .  S
C2151      F2156   1.380       .  S
C2151      F2157   1.382       .  S
C2154      F2158   1.382       .  S
C2154      F2159   1.383       .  S
C2154      F2160   1.385       .  S
C2161      C2162   1.400       .  A
C2161      C2166   1.405       .  A
C2161      H2168   1.083       .  S
C2162      C2163   1.420       .  A
C2163      C2164   1.406       .  A
C2163      C2170   1.521       .  S
C2164      C2165   1.400       .  A
C2164      H2169   1.083       .  S
C2165      C2166   1.421       .  A
C2166      C2167   1.521       .  S
C2167      F2171   1.385       .  S
C2167      F2172   1.382       .  S
C2167      F2173   1.383       .  S
C2170      F2174   1.383       .  S
C2170      F2175   1.382       .  S
C2170      F2176   1.385       .  S
C2177      C2178   1.413       .  A
C2177      C2182   1.407       .  A
C2177      H2184   1.083       .  S
C2179      C2180   1.407       .  A
C2179      C2186   1.520       .  S
C2180      C2181   1.409       .  A
C2180      H2185   1.083       .  S
C2182      C2183   1.519       .  S
C2183      F2187   1.385       .  S
C2183      F2188   1.382       .  S
C2183      F2189   1.383       .  S
C2186      F2190   1.383       .  S
C2186      F2191   1.384       .  S
C2186      F2192   1.385       .  S
C2193      C2194   1.404       .  A
C2193      H2200   1.084       .  S
C2194      C2195   1.413       .  A
C2195      C2196   1.409       .  A
C2195      C2202   1.517       .  S
C2196      C2197   1.409       .  A
C2196      H2201   1.083       .  S
C2198      C2199   1.520       .  S
C2199      F2203   1.385       .  S
C2199      F2204   1.383       .  S
C2199      F2205   1.383       .  S
C2202      F2206   1.381       .  S
C2202      F2207   1.382       .  S
C2202      F2208   1.384       .  S
C2209      C2210   1.408   1_455  A
C2209      C2214   1.401       .  A
C2209      H2216   1.083   1_565  S
C2210      C2211   1.413       .  A
C2211      C2212   1.403       .  A
C2211      C2218   1.518       .  S
C2212      C2213   1.408       .  A
C2212      H2217   1.083       .  S
C2213      C2214   1.412   1_655  A
C2214      C2215   1.520   1_565  S
C2215      F2219   1.385       .  S
C2215      F2220   1.383   1_455  S
C2215      F2221   1.384       .  S
C2218      F2223   1.383   1_655  S
C2225      C2226   1.410       .  A
C2225      C2230   1.408       .  A
C2225      H2232   1.082       .  S
C2226      C2227   1.412       .  A
C2227      C2228   1.403       .  A
C2227      C2234   1.520       .  S
C2228      C2229   1.414       .  A
C2228      H2233   1.081       .  S
C2229      C2230   1.417       .  A
C2230      C2231   1.518       .  S
C2231      F2235   1.385       .  S
C2231      F2236   1.383       .  S
C2231      F2237   1.383       .  S
C2234      F2238   1.382       .  S
C2234      F2239   1.382       .  S
C2234      F2240   1.385       .  S
C2241      C2242   1.414       .  A
C2241      C2246   1.408       .  A
C2241      H2248   1.082       .  S
C2242      C2243   1.421       .  A
C2243      C2244   1.411       .  A
C2243      C2250   1.520       .  S
C2244      C2245   1.409       .  A
C2244      H2249   1.083       .  S
C2245      C2246   1.414       .  A
C2246      C2247   1.520       .  S
C2247      F2251   1.384       .  S
C2247      F2252   1.384       .  S
C2247      F2253   1.383       .  S
C2250      F2254   1.383       .  S
C2250      F2255   1.384       .  S
C2250      F2256   1.385       .  S
C2257      C2258   1.411       .  A
C2257      C2262   1.410       .  A
C2257      H2264   1.082       .  S
C2258      C2259   1.412       .  A
C2259      C2260   1.406       .  A
C2259      C2266   1.520       .  S
C2260      C2261   1.415       .  A
C2260      H2265   1.081       .  S
C2261      C2262   1.419       .  A
C2262      C2263   1.520       .  S
C2263      F2267   1.385       .  S
C2263      F2268   1.383       .  S
C2263      F2269   1.383       .  S
C2266      F2270   1.384       .  S
C2266      F2271   1.383       .  S
C2266      F2272   1.385       .  S
C2273      C2274   1.415       .  A
C2273      C2278   1.410       .  A
C2273      H2280   1.082       .  S
C2274      C2275   1.420       .  A
C2275      C2276   1.409       .  A
C2275      C2282   1.520       .  S
C2276      C2277   1.408       .  A
C2276      H2281   1.082       .  S
C2277      C2278   1.413       .  A
C2278      C2279   1.519       .  S
C2279      F2283   1.385       .  S
C2279      F2284   1.382   1_565  S
C2279      F2285   1.384       .  S
C2282      F2286   1.384       .  S
C2282      F2287   1.383       .  S
C2282      F2288   1.385       .  S
C2289      C2290   1.404       .  A
C2289      C2294   1.404       .  A
C2289      H2296   1.083       .  S
C2290      C2291   1.413       .  A
C2291      C2292   1.401       .  A
C2291      C2298   1.517       .  S
C2292      C2293   1.402       .  A
C2292      H2297   1.084       .  S
C2293      C2294   1.414       .  A
C2294      C2295   1.517       .  S
C2295      F2299   1.385       .  S
C2295      F2300   1.382       .  S
C2295      F2301   1.382       .  S
C2298      F2302   1.382       .  S
C2298      F2303   1.381       .  S
C2298      F2304   1.384       .  S
C2305      C2306   1.402   1_655  A
C2305      C2310   1.406       .  A
C2305      H2312   1.084       .  S
C2306      C2307   1.407       .  A
C2307      C2308   1.403       .  A
C2307      C2314   1.518       .  S
C2308      C2309   1.410       .  A
C2308      H2313   1.084       .  S
C2309      C2310   1.418   1_455  A
C2310      C2311   1.519       .  S
C2311      F2315   1.385       .  S
C2311      F2316   1.383       .  S
C2311      F2317   1.384       .  S
C2314      F2318   1.383       .  S
C2314      F2319   1.383       .  S
C2314      F2320   1.384       .  S
C2321      C2322   1.416       .  A
C2321      H2328   1.082       .  S
C2322      C2323   1.421   1_655  A
C2323      C2324   1.409       .  A
C2323      C2330   1.519       .  S
C2325      C2326   1.420   1_655  A
C2326      C2327   1.521       .  S
C2327      F2331   1.385       .  S
C2327      F2332   1.384       .  S
C2327      F2333   1.383   1_455  S
C2330      F2334   1.384       .  S
C2330      F2335   1.383       .  S
C2330      F2336   1.385       .  S
C2337      C2338   1.402       .  A
C2337      C2342   1.402       .  A
C2337      H2344   1.084       .  S
C2338      C2339   1.413   1_455  A
C2339      C2340   1.405       .  A
C2339      C2346   1.517       .  S
C2340      C2341   1.404       .  A
C2340      H2345   1.084       .  S
C2341      C2342   1.413   1_655  A
C2342      C2343   1.516       .  S
C2343      F2347   1.385       .  S
C2343      F2348   1.382       .  S
C2343      F2349   1.382       .  S
C2346      F2350   1.382       .  S
C2346      F2351   1.383       .  S
C2346      F2352   1.384       .  S
C2353      C2354   1.414       .  A
C2353      C2358   1.404       .  A
C2353      H2360   1.081       .  S
C2354      C2355   1.415       .  A
C2355      C2356   1.405       .  A
C2355      C2362   1.521       .  S
C2356      C2357   1.413       .  A
C2356      H2361   1.081       .  S
C2357      C2358   1.412       .  A
C2358      C2359   1.520       .  S
C2359      F2363   1.385       .  S
C2359      F2364   1.384       .  S
C2359      F2365   1.383       .  S
C2362      F2366   1.383       .  S
C2362      F2367   1.383       .  S
C2362      F2368   1.385       .  S
C2369      C2370   1.416       .  A
C2369      C2374   1.408       .  A
C2369      H2376   1.080       .  S
C2370      C2371   1.419       .  A
C2371      C2372   1.410       .  A
C2371      C2378   1.519       .  S
C2372      C2373   1.410       .  A
C2372      H2377   1.082       .  S
C2373      C2374   1.414       .  A
C2374      C2375   1.521       .  S
C2375      F2379   1.385       .  S
C2375      F2380   1.383       .  S
C2375      F2381   1.384       .  S
C2378      F2382   1.384       .  S
C2378      F2383   1.383       .  S
C2378      F2384   1.385       .  S
C2385      C2386   1.412       .  A
C2385      C2390   1.404       .  A
C2385      H2392   1.082       .  S
C2386      C2387   1.415       .  A
C2387      C2388   1.406       .  A
C2387      C2394   1.521       .  S
C2388      C2389   1.413       .  A
C2388      H2393   1.082       .  S
C2389      C2390   1.415       .  A
C2390      C2391   1.521       .  S
C2391      F2395   1.385       .  S
C2391      F2396   1.383       .  S
C2391      F2397   1.384       .  S
C2394      F2398   1.383       .  S
C2394      F2399   1.384       .  S
C2394      F2400   1.385       .  S
C2401      C2402   1.412       .  A
C2401      C2406   1.410       .  A
C2401      H2408   1.082       .  S
C2402      C2403   1.422       .  A
C2403      C2404   1.409       .  A
C2403      C2410   1.521       .  S
C2404      C2405   1.407       .  A
C2404      H2409   1.083       .  S
C2405      C2406   1.413       .  A
C2406      C2407   1.518       .  S
C2407      F2411   1.384       .  S
C2407      F2412   1.382       .  S
C2407      F2413   1.384       .  S
C2410      F2414   1.384       .  S
C2410      F2415   1.383       .  S
C2410      F2416   1.385       .  S
C2417      C2418   1.409       .  A
C2417      C2422   1.402       .  A
C2417      H2424   1.083       .  S
C2418      C2419   1.413       .  A
C2419      C2420   1.405       .  A
C2419      C2426   1.519       .  S
C2420      C2421   1.411       .  A
C2420      H2425   1.082       .  S
C2421      C2422   1.413       .  A
C2422      C2423   1.519       .  S
C2423      F2427   1.385       .  S
C2423      F2428   1.382       .  S
C2423      F2429   1.383       .  S
C2426      F2430   1.383       .  S
C2426      F2431   1.383       .  S
C2426      F2432   1.385       .  S
C2433      C2434   1.411       .  A
C2433      C2438   1.401       .  A
C2433      H2440   1.083       .  S
C2434      C2435   1.419       .  A
C2435      C2436   1.409       .  A
C2435      C2442   1.518       .  S
C2436      C2437   1.404       .  A
C2436      H2441   1.084       .  S
C2437      C2438   1.407       .  A
C2438      C2439   1.517       .  S
C2439      F2443   1.384       .  S
C2439      F2444   1.382       .  S
C2439      F2445   1.384       .  S
C2442      F2446   1.383       .  S
C2442      F2447   1.383       .  S
C2442      F2448   1.385       .  S
C2449      C2450   1.410       .  A
C2449      C2454   1.405       .  A
C2449      H2456   1.084       .  S
C2450      C2451   1.419       .  A
C2451      C2452   1.409       .  A
C2451      C2458   1.519       .  S
C2452      C2453   1.406       .  A
C2452      H2457   1.085       .  S
C2453      C2454   1.413       .  A
C2454      C2455   1.520       .  S
C2455      F2459   1.384       .  S
C2455      F2460   1.383       .  S
C2455      F2461   1.382       .  S
C2458      F2462   1.383       .  S
C2458      F2463   1.384       .  S
C2458      F2464   1.384       .  S
C2465      C2466   1.404       .  A
C2465      C2470   1.409       .  A
C2465      H2472   1.083       .  S
C2466      C2467   1.409       .  A
C2467      C2468   1.407       .  A
C2467      C2474   1.518       .  S
C2468      C2469   1.414       .  A
C2468      H2473   1.082       .  S
C2469      C2470   1.422       .  A
C2470      C2471   1.520       .  S
C2471      F2475   1.385       .  S
C2471      F2476   1.383   1_565  S
C2471      F2477   1.383       .  S
C2474      F2478   1.384       .  S
C2474      F2479   1.382       .  S
C2474      F2480   1.385       .  S
C2481      C2482   1.414       .  A
C2481      C2486   1.412       .  A
C2481      H2488   1.082       .  S
C2482      C2483   1.419       .  A
C2483      C2484   1.409       .  A
C2483      C2490   1.519       .  S
C2484      C2485   1.408       .  A
C2484      H2489   1.082       .  S
C2485      C2486   1.414       .  A
C2486      C2487   1.519       .  S
C2487      F2491   1.385       .  S
C2487      F2492   1.384       .  S
C2487      F2493   1.383       .  S
C2490      F2494   1.383       .  S
C2490      F2495   1.383       .  S
C2490      F2496   1.385       .  S
C2497      C2498   1.408       .  A
C2497      C2502   1.405       .  A
C2497      H2504   1.083       .  S
C2498      C2499   1.413       .  A
C2499      C2500   1.406       .  A
C2499      C2506   1.519       .  S
C2500      C2501   1.408       .  A
C2500      H2505   1.083       .  S
C2501      C2502   1.414       .  A
C2502      C2503   1.519       .  S
C2503      F2507   1.385       .  S
C2503      F2508   1.383       .  S
C2503      F2509   1.383       .  S
C2506      F2510   1.382       .  S
C2506      F2511   1.382       .  S
C2506      F2512   1.385       .  S
C2513      C2514   1.401   1_545  A
C2513      C2518   1.403       .  A
C2513      H2520   1.084   1_545  S
C2515      C2516   1.408       .  A
C2515      C2522   1.518       .  S
C2516      C2517   1.402       .  A
C2516      H2521   1.083       .  S
C2518      C2519   1.520       .  S
C2519      F2523   1.385       .  S
C2519      F2525   1.382       .  S
C2522      F2526   1.382       .  S
C2522      F2527   1.383       .  S
C2522      F2528   1.385       .  S
C2529      C2530   1.407       .  A
C2529      C2534   1.408       .  A
C2529      H2536   1.083       .  S
C2531      C2532   1.403       .  A
C2531      C2538   1.516       .  S
C2532      H2537   1.080       .  S
C2533      C2534   1.418       .  A
C2534      C2535   1.519       .  S
C2535      F2539   1.385       .  S
C2535      F2540   1.383       .  S
C2535      F2541   1.383       .  S
C2538      F2542   1.381       .  S
C2538      F2543   1.382       .  S
C2538      F2544   1.385       .  S
C2545      C2546   1.410       .  A
C2545      C2550   1.406       .  A
C2545      H2552   1.083       .  S
C2546      C2547   1.419       .  A
C2547      C2548   1.409       .  A
C2547      C2554   1.519       .  S
C2548      C2549   1.406       .  A
C2548      H2553   1.083       .  S
C2549      C2550   1.413       .  A
C2550      C2551   1.520       .  S
C2551      F2555   1.385       .  S
C2551      F2556   1.382       .  S
C2551      F2557   1.384       .  S
C2554      F2558   1.384       .  S
C2554      F2559   1.383   1_565  S
C2554      F2560   1.385       .  S
C2561      C2562   1.400       .  A
C2561      C2566   1.401       .  A
C2561      H2568   1.083       .  S
C2562      C2563   1.424       .  A
C2563      C2564   1.406       .  A
C2563      C2570   1.522       .  S
C2564      C2565   1.398       .  A
C2564      H2569   1.084       .  S
C2565      C2566   1.416       .  A
C2566      C2567   1.517       .  S
C2567      F2571   1.385       .  S
C2567      F2572   1.379       .  S
C2567      F2573   1.382       .  S
C2570      F2574   1.382       .  S
C2570      F2575   1.384       .  S
C2570      F2576   1.385       .  S
C2577      C2578   1.412       .  A
C2577      C2582   1.407       .  A
C2577      H2584   1.083       .  S
C2578      C2579   1.419       .  A
C2579      C2580   1.412       .  A
C2579      C2586   1.519       .  S
C2580      C2581   1.407       .  A
C2580      H2585   1.084       .  S
C2581      C2582   1.411       .  A
C2582      C2583   1.518       .  S
C2583      F2587   1.384       .  S
C2583      F2588   1.382       .  S
C2583      F2589   1.382       .  S
C2586      F2590   1.383       .  S
C2586      F2591   1.382       .  S
C2586      F2592   1.385       .  S
C2593      C2594   1.403       .  A
C2593      H2600   1.082       .  S
C2595      C2596   1.410       .  A
C2595      C2602   1.519       .  S
C2596      C2597   1.405       .  A
C2596      H2601   1.084       .  S
C2597      C2598   1.413       .  A
C2598      C2599   1.518       .  S
C2599      F2604   1.384       .  S
C2599      F2605   1.382       .  S
C2602      F2606   1.383       .  S
C2602      F2607   1.384       .  S
C2602      F2608   1.385       .  S
C2609      C2610   1.408       .  A
C2609      C2614   1.401       .  A
C2609      H2616   1.084       .  S
C2610      C2611   1.410       .  A
C2611      C2612   1.402       .  A
C2611      C2618   1.519   1_565  S
C2612      C2613   1.409       .  A
C2612      H2617   1.083   1_565  S
C2613      C2614   1.413       .  A
C2614      C2615   1.520       .  S
C2615      F2619   1.385       .  S
C2615      F2620   1.384       .  S
C2615      F2621   1.383       .  S
C2618      F2623   1.384       .  S
C2625      C2626   1.415       .  A
C2625      C2630   1.408       .  A
C2625      H2632   1.082       .  S
C2626      C2627   1.418       .  A
C2627      C2628   1.404       .  A
C2627      C2634   1.521       .  S
C2628      C2629   1.411       .  A
C2628      H2633   1.082       .  S
C2629      C2630   1.415       .  A
C2630      C2631   1.520       .  S
C2631      F2635   1.385       .  S
C2631      F2636   1.382       .  S
C2631      F2637   1.382       .  S
C2634      F2638   1.383       .  S
C2634      F2639   1.383       .  S
C2634      F2640   1.385       .  S
C2641      C2642   1.413       .  A
C2641      C2646   1.410       .  A
C2641      H2648   1.082       .  S
C2642      C2643   1.417       .  A
C2643      C2644   1.407       .  A
C2643      C2650   1.521       .  S
C2644      C2645   1.414       .  A
C2644      H2649   1.082       .  S
C2645      C2646   1.417       .  A
C2646      C2647   1.519       .  S
C2647      F2651   1.385       .  S
C2647      F2652   1.382       .  S
C2647      F2653   1.384       .  S
C2650      F2654   1.383       .  S
C2650      F2655   1.384       .  S
C2650      F2656   1.385       .  S
C2657      C2658   1.405       .  A
C2657      C2662   1.405       .  A
C2657      H2664   1.083       .  S
C2658      C2659   1.415       .  A
C2659      C2660   1.405       .  A
C2659      C2666   1.519       .  S
C2660      C2661   1.406       .  A
C2660      H2665   1.083       .  S
C2661      C2662   1.414       .  A
C2662      C2663   1.519       .  S
C2663      F2667   1.384       .  S
C2663      F2668   1.383       .  S
C2663      F2669   1.382       .  S
C2666      F2670   1.382       .  S
C2666      F2671   1.383       .  S
C2666      F2672   1.385       .  S
C2673      C2674   1.402       .  A
C2673      C2678   1.407       .  A
C2673      H2680   1.084       .  S
C2674      C2675   1.409       .  A
C2675      C2676   1.403       .  A
C2675      C2682   1.519       .  S
C2676      C2677   1.407       .  A
C2676      H2681   1.084       .  S
C2677      C2678   1.417       .  A
C2678      C2679   1.518       .  S
C2679      F2683   1.385       .  S
C2679      F2684   1.382       .  S
C2679      F2685   1.383       .  S
C2682      F2686   1.383       .  S
C2682      F2687   1.383       .  S
C2682      F2688   1.385       .  S
C2689      C2690   1.411       .  A
C2689      C2694   1.411       .  A
C2689      H2696   1.079       .  S
C2690      C2691   1.414       .  A
C2691      C2692   1.410       .  A
C2691      C2698   1.520       .  S
C2692      C2693   1.416       .  A
C2692      H2697   1.078       .  S
C2693      C2694   1.420       .  A
C2694      C2695   1.520       .  S
C2695      F2699   1.385       .  S
C2695      F2700   1.384       .  S
C2695      F2701   1.383       .  S
C2698      F2702   1.383       .  S
C2698      F2703   1.383       .  S
C2698      F2704   1.384       .  S
C2705      C2706   1.404       .  A
C2705      C2710   1.404       .  A
C2705      H2712   1.085       .  S
C2707      C2708   1.402       .  A
C2707      C2714   1.521       .  S
C2708      C2709   1.412       .  A
C2708      H2713   1.083       .  S
C2710      C2711   1.519       .  S
C2711      F2715   1.384       .  S
C2711      F2716   1.384       .  S
C2711      F2717   1.383       .  S
C2714      F2718   1.383       .  S
C2714      F2719   1.383       .  S
C2714      F2720   1.385       .  S
C2721      C2722   1.404       .  A
C2721      C2726   1.408       .  A
C2721      H2728   1.083       .  S
C2722      C2723   1.413       .  A
C2723      C2724   1.409       .  A
C2723      C2730   1.518       .  S
C2724      C2725   1.409       .  A
C2724      H2729   1.083       .  S
C2725      C2726   1.418       .  A
C2726      C2727   1.519       .  S
C2727      F2731   1.385       .  S
C2727      F2732   1.384       .  S
C2727      F2733   1.382       .  S
C2730      F2734   1.383       .  S
C2730      F2735   1.383       .  S
C2730      F2736   1.384       .  S
C2737      C2738   1.396       .  A
C2737      C2742   1.402       .  A
C2737      H2744   1.084       .  S
C2738      C2739   1.425       .  A
C2739      C2740   1.402       .  A
C2739      C2746   1.523       .  S
C2740      C2741   1.396       .  A
C2740      H2745   1.084       .  S
C2741      C2742   1.424       .  A
C2742      C2743   1.522       .  S
C2743      F2747   1.385       .  S
C2743      F2748   1.383       .  S
C2743      F2749   1.383       .  S
C2746      F2750   1.383       .  S
C2746      F2751   1.383       .  S
C2753      C2754   1.416   1_455  A
C2753      C2758   1.404       .  A
C2753      H2760   1.084       .  S
C2754      C2755   1.419       .  A
C2755      C2756   1.403       .  A
C2755      C2762   1.521       .  S
C2756      C2757   1.407       .  A
C2756      H2761   1.085       .  S
C2757      C2758   1.411   1_655  A
C2758      C2759   1.520       .  S
C2759      F2763   1.385       .  S
C2759      F2764   1.384       .  S
C2759      F2765   1.382   1_455  S
C2762      F2766   1.384   1_655  S
C2762      F2767   1.383       .  S
C2762      F2768   1.385       .  S
C2769      C2770   1.410       .  A
C2769      C2774   1.410       .  A
C2769      H2776   1.081       .  S
C2770      C2771   1.418       .  A
C2771      C2772   1.411       .  A
C2771      C2778   1.518       .  S
C2772      C2773   1.405       .  A
C2772      H2777   1.082       .  S
C2773      C2774   1.413       .  A
C2774      C2775   1.518       .  S
C2775      F2779   1.385       .  S
C2775      F2780   1.383       .  S
C2775      F2781   1.382       .  S
C2778      F2782   1.383       .  S
C2778      F2783   1.383       .  S
C2778      F2784   1.384       .  S
C2785      C2786   1.409   1_655  A
C2785      C2790   1.404       .  A
C2785      H2792   1.083       .  S
C2786      C2787   1.418       .  A
C2787      C2788   1.406       .  A
C2787      C2794   1.519       .  S
C2788      C2789   1.402       .  A
C2788      H2793   1.083       .  S
C2789      C2790   1.409   1_455  A
C2790      C2791   1.518       .  S
C2791      F2795   1.385       .  S
C2791      F2796   1.383       .  S
C2791      F2797   1.383       .  S
C2794      F2798   1.384       .  S
C2794      F2799   1.382       .  S
C2794      F2800   1.385       .  S
C2801      C2802   1.411       .  A
C2801      C2806   1.407       .  A
C2801      H2808   1.081       .  S
C2802      C2803   1.419       .  A
C2803      C2804   1.409       .  A
C2803      C2810   1.522       .  S
C2804      C2805   1.414       .  A
C2804      H2809   1.081       .  S
C2805      C2806   1.420       .  A
C2806      C2807   1.521       .  S
C2807      F2811   1.385       .  S
C2807      F2812   1.383       .  S
C2807      F2813   1.383       .  S
C2810      F2814   1.383       .  S
C2810      F2815   1.383       .  S
C2810      F2816   1.385       .  S
C2817      C2818   1.410       .  A
C2817      C2822   1.405       .  A
C2817      H2824   1.083       .  S
C2818      C2819   1.417   1_655  A
C2819      C2820   1.404       .  A
C2819      C2826   1.521       .  S
C2820      C2821   1.409   1_455  A
C2820      H2825   1.083       .  S
C2821      C2822   1.414       .  A
C2822      C2823   1.519       .  S
C2823      F2827   1.384       .  S
C2823      F2828   1.383       .  S
C2823      F2829   1.383       .  S
C2826      F2830   1.383       .  S
C2826      F2831   1.384       .  S
C2826      F2832   1.385       .  S
C2833      C2834   1.418       .  A
C2833      C2838   1.407       .  A
C2833      H2840   1.081       .  S
C2834      C2835   1.420       .  A
C2835      C2836   1.405       .  A
C2835      C2842   1.521       .  S
C2836      C2837   1.407       .  A
C2836      H2841   1.081       .  S
C2837      C2838   1.410       .  A
C2838      C2839   1.519       .  S
C2839      F2843   1.385       .  S
C2839      F2844   1.384       .  S
C2839      F2845   1.383       .  S
C2842      F2846   1.383       .  S
C2842      F2847   1.384       .  S
C2842      F2848   1.385       .  S
C2849      C2850   1.411       .  A
C2849      C2854   1.407       .  A
C2849      H2856   1.084       .  S
C2850      C2851   1.418       .  A
C2851      C2852   1.413       .  A
C2851      C2858   1.518       .  S
C2852      C2853   1.408       .  A
C2852      H2857   1.084       .  S
C2853      C2854   1.415       .  A
C2854      C2855   1.518       .  S
C2855      F2859   1.385       .  S
C2855      F2860   1.382       .  S
C2855      F2861   1.382       .  S
C2858      F2862   1.384       .  S
C2858      F2863   1.383       .  S
C2858      F2864   1.384       .  S
C2865      C2866   1.408       .  A
C2865      C2870   1.410       .  A
C2865      H2872   1.083       .  S
C2866      C2867   1.414       .  A
C2867      C2868   1.412       .  A
C2867      C2874   1.519       .  S
C2868      C2869   1.415       .  A
C2868      H2873   1.082       .  S
C2869      C2870   1.422       .  A
C2870      C2871   1.520       .  S
C2871      F2875   1.385       .  S
C2871      F2876   1.383       .  S
C2871      F2877   1.383       .  S
C2874      F2878   1.384       .  S
C2874      F2880   1.384       .  S
C2881      C2882   1.415       .  A
C2881      C2886   1.406       .  A
C2881      H2888   1.082       .  S
C2882      C2883   1.414       .  A
C2883      C2884   1.406       .  A
C2883      C2890   1.519       .  S
C2884      C2885   1.414       .  A
C2884      H2889   1.082       .  S
C2885      C2886   1.413       .  A
C2886      C2887   1.520       .  S
C2887      F2891   1.385       .  S
C2887      F2892   1.383       .  S
C2887      F2893   1.384       .  S
C2890      F2895   1.383       .  S
C2890      F2896   1.385       .  S
C2897      C2898   1.403       .  A
C2897      C2902   1.406       .  A
C2897      H2904   1.082       .  S
C2898      C2899   1.431       .  A
C2899      C2900   1.406       .  A
C2900      C2901   1.398       .  A
C2901      C2902   1.424       .  A
C2902      C2903   1.522       .  S
C2903      F2907   1.385       .  S
C2903      F2908   1.383       .  S
C2903      F2909   1.383       .  S
C2906      F2910   1.383       .  S
C2906      F2911   1.384       .  S
C2906      F2912   1.385       .  S
C2913      C2914   1.411       .  A
C2913      C2918   1.408       .  A
C2913      H2920   1.082       .  S
C2914      C2915   1.418       .  A
C2915      C2916   1.410       .  A
C2915      C2922   1.521       .  S
C2916      C2917   1.414       .  A
C2916      H2921   1.082       .  S
C2917      C2918   1.421       .  A
C2918      C2919   1.522       .  S
C2919      F2923   1.385       .  S
C2919      F2924   1.383       .  S
C2919      F2925   1.383       .  S
C2922      F2926   1.383   1_565  S
C2922      F2927   1.384   1_565  S
C2922      F2928   1.385   1_565  S
C2929      C2930   1.408       .  A
C2929      C2934   1.406       .  A
C2929      H2936   1.083       .  S
C2931      C2932   1.405       .  A
C2931      C2938   1.519       .  S
C2932      H2937   1.083       .  S
C2933      C2934   1.415       .  A
C2934      C2935   1.519       .  S
C2935      F2939   1.385       .  S
C2935      F2940   1.383       .  S
C2935      F2941   1.383       .  S
C2938      F2943   1.383       .  S
C2938      F2944   1.385       .  S
