geometry optimzed in LAMMPS
_audit_creation_date              2020-12-01 
_audit_creation_method            'lammps2cif' 
_symmetry_space_group_name_H-M    'P1' 
_symmetry_Int_Tables_number       1 
_symmetry_cell_setting            triclinic 
loop_ 
_symmetry_equiv_pos_as_xyz 
  x,y,z 
_cell_length_a                    33.5237669 
_cell_length_b                    43.23309067405311 
_cell_length_c                    41.211368921339 
_cell_angle_alpha                 89.54249385819014 
_cell_angle_beta                  89.83780850784602 
_cell_angle_gamma                 90.22642645377573 
loop_ 
_atom_site_label 
_atom_site_type_symbol 
_atom_site_fract_x 
_atom_site_fract_y 
_atom_site_fract_z 
_atom_site_charge 
O1          O  0.65018369  0.19837315  0.56103999    -0.86200
O2          O  0.69651305  0.14839516  0.57138738    -0.83300
C3          C  0.72958563  0.16015394  0.56378299     0.97300
O4          O  0.74552684  0.18014994  0.58195834    -0.83300
O5          O  0.75286370  0.22407115  0.63331903    -0.85900
C6          C  0.73800397  0.24926041  0.62324949     1.01800
O7          O  0.70410120  0.24878268  0.61091394    -0.78700
O8          O  0.63017797  0.23627476  0.59172231    -0.78900
C9          C  0.63842024  0.22578228  0.56366485     1.01700
O10         O  0.59874101  0.18014852  0.61284502    -0.86200
O11         O  0.65290614  0.13215806  0.62686456    -0.83300
C12         C  0.68627003  0.11901617  0.63054367     0.97300
O13         O  0.71864542  0.13436899  0.62836091    -0.83300
O14         O  0.71920767  0.17874563  0.67557680    -0.85900
C15         C  0.71217986  0.20340815  0.69049259     1.01700
O16         O  0.69189646  0.22477973  0.67669113    -0.78700
O17         O  0.61514137  0.20634511  0.65580745    -0.78900
C18         C  0.58925147  0.19176833  0.63978130     1.01700
Cr19       Cr  0.65126633  0.16669228  0.59515909     1.93700
Cr20       Cr  0.73048831  0.18017268  0.62884929     1.93200
Cr21       Cr  0.66136829  0.22633531  0.63329380     1.39100
O22         O  0.68066529  0.19076826  0.61987718    -1.24000
O23         O  0.85413443  0.01723921  0.41297785    -0.86200
O24         O  0.79741797  0.01396359  0.36345842    -0.83300
C25         C  0.77076659  0.01222782  0.38440005     0.97300
O26         O  0.76191281  0.03655013  0.39959340    -0.83300
O27         O  0.77413486  0.09391038  0.42856511    -0.85900
C28         C  0.79646201  0.09855214  0.45244905     1.01800
O29         O  0.83307458  0.09369312  0.45007628    -0.78700
O30         O  0.89153282  0.05478434  0.43118430    -0.78900
C31         C  0.87324169  0.02942480  0.43619371     1.01700
O32         O  0.90659818  0.04671956  0.36558721    -0.86200
O33         O  0.83743545  0.05285128  0.32270243    -0.83300
C34         C  0.80125098  0.05993558  0.31551151     0.97300
O35         O  0.77674185  0.06725345  0.33761801    -0.83300
O36         O  0.79034827  0.12235126  0.36952808    -0.85900
C37         C  0.81471288  0.14186472  0.38107176     1.01700
O38         O  0.84522229  0.13334160  0.39664464    -0.78700
O39         O  0.90568750  0.09564776  0.37475731    -0.78900
C40         C  0.92426923  0.07241362  0.36475436     1.01700
Cr41       Cr  0.84851191  0.03573757  0.36790055     1.93700
Cr42       Cr  0.78016460  0.07903600  0.38403236     1.93200
Cr43       Cr  0.86606054  0.09227847  0.41058639     1.39100
O44         O  0.83159969  0.07005820  0.38687307    -1.24000
O45         O  0.35672323  0.25888076  0.59120445    -0.86200
O46         O  0.29944348  0.26691557  0.63847962    -0.83300
C47         C  0.26948615  0.26667837  0.62031176     0.97300
O48         O  0.25828251  0.24140498  0.60770209    -0.83300
O49         O  0.26748939  0.18013417  0.58401052    -0.85900
C50         C  0.28807908  0.17854955  0.55848382     1.01800
O51         O  0.32295344  0.18909146  0.55781950    -0.78700
O52         O  0.39025631  0.21871504  0.57554519    -0.78900
C53         C  0.37540339  0.24486740  0.56904306     1.01700
O54         O  0.40508926  0.22643552  0.63861826    -0.86200
O55         O  0.33733465  0.22857043  0.68283595    -0.83300
C56         C  0.30098744  0.22427248  0.69154365     0.97300
O57         O  0.27474384  0.21757183  0.67082173    -0.83300
O58         O  0.28899241  0.15957450  0.64629797    -0.85900
C59         C  0.30398575  0.13832586  0.62931960     1.01700
O60         O  0.33012835  0.14474144  0.60814620    -0.78700
O61         O  0.39589928  0.17735450  0.63166656    -0.80500
C62         C  0.41843066  0.19916454  0.64012054     1.01700
Cr63       Cr  0.34883990  0.24252316  0.63661417     1.93700
Cr64       Cr  0.27635482  0.20050926  0.62652491     1.93200
Cr65       Cr  0.35777037  0.18432314  0.59567729     1.39100
O66         O  0.32753650  0.20872321  0.62004898    -1.24000
O67         O  0.14712578  0.08076984  0.44364135    -0.86200
O68         O  0.19909750  0.12837098  0.43466135    -0.83300
C69         C  0.22775175  0.11429043  0.44747232     0.97300
O70         O  0.24378299  0.09236643  0.43234702    -0.83300
O71         O  0.25950469  0.04822731  0.38396688    -0.85900
C72         C  0.24263405  0.02239040  0.38779254     1.01800
O73         O  0.20582196  0.02084047  0.39276299    -0.78700
O74         O  0.13321845  0.04010563  0.41335805    -0.78900
C75         C  0.13560554  0.05313680  0.44109846     1.01700
O76         O  0.10404383  0.09824578  0.38858098    -0.86200
O77         O  0.16538908  0.14195667  0.37383569    -0.83300
C78         C  0.20023289  0.15339260  0.37275494     0.97300
O79         O  0.23029135  0.13731101  0.38085352    -0.83300
O80         O  0.23888617  0.09128236  0.33699099    -0.85900
C81         C  0.22617570  0.06946860  0.31979832     1.01700
O82         O  0.19940037  0.05068282  0.33018999    -0.78700
O83         O  0.12242200  0.06927825  0.34845463    -0.78900
C84         C  0.09548394  0.08353389  0.36339173     1.01700
Cr85       Cr  0.15614502  0.11012246  0.40796979     1.93700
Cr86       Cr  0.23883637  0.09158385  0.38431621     1.93200
Cr87       Cr  0.16652979  0.04827940  0.37217336     1.39100
O88         O  0.18704670  0.08308253  0.38742546    -1.24000
O89         O  0.11295610  0.46854726  0.57575635    -0.86200
O90         O  0.17893184  0.43796952  0.55734855    -0.83300
C91         C  0.21378407  0.42773170  0.55706272     0.97300
O92         O  0.23415330  0.42898310  0.58276425    -0.83300
O93         O  0.24306524  0.49059053  0.60734907    -0.85900
C94         C  0.23221496  0.51576376  0.62039783     1.01800
O95         O  0.20334858  0.51546236  0.63999143    -0.78700
O96         O  0.14528381  0.50838185  0.59445157    -0.78900
C97         C  0.12756421  0.49530278  0.57135789     1.01700
O98         O  0.10544131  0.42554140  0.63074246    -0.86200
O99         O  0.17113793  0.39372916  0.60757759    -0.83300
C100        C  0.19701172  0.38722973  0.62878978     0.97300
O101        O  0.21252292  0.40838399  0.64561829    -0.83300
O102        O  0.22833538  0.46606273  0.67073286    -0.85900
C103        C  0.20242575  0.47162034  0.69225285     1.01700
O104        O  0.16580402  0.47522962  0.68427085    -0.78700
O105        O  0.09653549  0.47431559  0.64075259    -0.78900
C106        C  0.08262211  0.44706471  0.63900029     1.01700
Cr107      Cr  0.14417766  0.43335795  0.59536408     1.93700
Cr108      Cr  0.22559432  0.44929763  0.62598222     1.93200
Cr109      Cr  0.15350239  0.49054726  0.63871886     1.39100
O110        O  0.17443189  0.45736546  0.62037420    -1.24000
O111        O  0.37632101  0.28902549  0.41101496    -0.86200
O112        O  0.30423377  0.27155785  0.38799199    -0.83300
C113        C  0.26776083  0.27328154  0.38167364     0.97300
O114        O  0.25139808  0.29920218  0.37781603    -0.83300
O115        O  0.26212141  0.34173519  0.42916033    -0.85900
C116        C  0.27777712  0.36256020  0.44639231     1.01800
O117        O  0.30945361  0.37556940  0.43709447    -0.78700
O118        O  0.35936317  0.32698811  0.44363104    -0.78900
C119        C  0.37084762  0.29963158  0.43956083     1.01700
O120        O  0.38993851  0.32234888  0.34836658    -0.86200
O121        O  0.31409274  0.30347835  0.32710198    -0.83300
C122        C  0.28846618  0.32275068  0.31632977     0.97300
O123        O  0.27636118  0.34464891  0.33375065    -0.83300
O124        O  0.28138372  0.38801043  0.38164288    -0.85900
C125        C  0.31181508  0.40492813  0.37680869     1.01700
O126        O  0.34668443  0.39379252  0.37887916    -0.78700
O127        O  0.40646095  0.34825867  0.39119724    -0.78900
C128        C  0.41613370  0.33619205  0.36464405     1.01700
Cr129      Cr  0.34483098  0.29969568  0.36975948     1.93700
Cr130      Cr  0.27216322  0.34254604  0.38135879     1.93200
Cr131      Cr  0.35344270  0.35898747  0.41024108     1.39100
O132        O  0.32353582  0.33363322  0.38651390    -1.24000
O133        O  0.84485267  0.49831337  0.59245586    -0.86200
O134        O  0.78416874  0.50255742  0.63844453    -0.83300
C135        C  0.75105845  0.49950480  0.62420697     0.97300
O136        O  0.74383209  0.47482332  0.60879867    -0.83300
O137        O  0.75914180  0.41517039  0.58269561    -0.85900
C138        C  0.77914436  0.41587636  0.55673961     1.01800
O139        O  0.81349157  0.42763359  0.55634495    -0.78700
O140        O  0.87995456  0.45888729  0.57604785    -0.78900
C141        C  0.86547165  0.48527903  0.57056806     1.01700
O142        O  0.89342016  0.46604662  0.63946961    -0.86200
O143        O  0.82519330  0.46324988  0.68263180    -0.83300
C144        C  0.78956315  0.45645492  0.69140054     0.97300
O145        O  0.76363027  0.45135107  0.67011226    -0.83300
O146        O  0.78358831  0.39497242  0.64492321    -0.85900
C147        C  0.79965120  0.37444909  0.62777592     1.01700
O148        O  0.82377601  0.38212897  0.60550092    -0.78700
O149        O  0.88828183  0.41669745  0.62964587    -0.78900
C150        C  0.90922075  0.43950413  0.63828519     1.01700
Cr151      Cr  0.83599897  0.47998284  0.63705173     1.93700
Cr152      Cr  0.76675262  0.43499686  0.62574938     1.93200
Cr153      Cr  0.84894434  0.42311055  0.59421308     1.39100
O154        O  0.81712784  0.44597047  0.61903716    -1.24000
O155        O  0.61564206  0.30597141  0.42746419    -0.86200
O156        O  0.68199074  0.33516246  0.44855996    -0.83300
C157        C  0.71687370  0.34566386  0.44959579     0.97300
O158        O  0.73808127  0.34634228  0.42433275    -0.83300
O159        O  0.75061839  0.28739100  0.39520546    -0.85900
C160        C  0.74186051  0.26285447  0.37996426     1.01800
O161        O  0.70933300  0.26133208  0.36502893    -0.78700
O162        O  0.64889751  0.26684276  0.40972326    -0.78900
C163        C  0.63023609  0.27961006  0.43274159     1.01700
O164        O  0.60882881  0.34991214  0.37491046    -0.86200
O165        O  0.67350788  0.38264471  0.40015903    -0.83300
C166        C  0.69849074  0.39121422  0.37890066     0.97300
O167        O  0.71753993  0.37092949  0.36347755    -0.83300
O168        O  0.73362662  0.31583870  0.33503386    -0.85900
C169        C  0.70976739  0.30799585  0.31314296     1.01700
O170        O  0.67358001  0.30125748  0.32045835    -0.78700
O171        O  0.60333698  0.30159236  0.36203023    -0.78900
C172        C  0.58815944  0.32827432  0.36317103     1.01700
Cr173      Cr  0.64762897  0.34163107  0.41035500     1.93700
Cr174      Cr  0.73048114  0.32905324  0.38022151     1.93200
Cr175      Cr  0.65959173  0.28568060  0.36579626     1.39100
O176        O  0.67929199  0.31914065  0.38493034    -1.24000
O177        O  0.86694950  0.21059133  0.94180662    -0.86200
O178        O  0.81653771  0.16174639  0.93782725    -0.83300
C179        C  0.78644822  0.17457285  0.94955806     0.97300
O180        O  0.76935421  0.19604060  0.93414531    -0.83300
O181        O  0.74947660  0.23918799  0.88552720    -0.85900
C182        C  0.76436756  0.26569556  0.88166475     1.01800
O183        O  0.80156959  0.26899912  0.87989175    -0.78700
O184        O  0.87150893  0.25284373  0.91075032    -0.78900
C185        C  0.87272511  0.23926189  0.93857895     1.01700
O186        O  0.90936561  0.18956408  0.88858925    -0.86200
O187        O  0.84743798  0.14563513  0.87718132    -0.83300
C188        C  0.81231928  0.13460568  0.87647023     0.97300
O189        O  0.78254776  0.15119292  0.88378088    -0.83300
O190        O  0.77057960  0.19683659  0.83822431    -0.85900
C191        C  0.78759438  0.21413207  0.81754381     1.01700
O192        O  0.81732628  0.23141135  0.82490385    -0.78700
O193        O  0.89457593  0.22103848  0.84937909    -0.78900
C194        C  0.91989356  0.20478675  0.86410670     1.01700
Cr195      Cr  0.85719570  0.17958261  0.90856659     1.93700
Cr196      Cr  0.77304441  0.19671796  0.88585278     1.93200
Cr197      Cr  0.84486769  0.23998283  0.86807266     1.39100
O198        O  0.82511500  0.20574860  0.88673863    -1.24000
O199        O  0.63201170  0.03696146  0.09557790    -0.86200
O200        O  0.70486090  0.02165692  0.11893962    -0.83300
C201        C  0.74066586  0.02381586  0.12729416     0.97300
O202        O  0.75552968  0.05015531  0.13236115    -0.83300
O203        O  0.74231284  0.09187859  0.07938362    -0.85900
C204        C  0.72578669  0.11217407  0.06171599     1.01800
O205        O  0.69438151  0.12533701  0.07100256    -0.78700
O206        O  0.64335758  0.07801931  0.06472900    -0.78900
C207        C  0.63416688  0.04997737  0.06760439     1.01700
O208        O  0.61482371  0.06677728  0.15872768    -0.86200
O209        O  0.69365327  0.05150086  0.18022188    -0.83300
C210        C  0.71797956  0.07187963  0.19114756     0.97300
O211        O  0.72627576  0.09546026  0.17430767    -0.83300
O212        O  0.72289578  0.13862854  0.12565210    -0.85900
C213        C  0.69240404  0.15483667  0.13169385     1.01700
O214        O  0.65788265  0.14295639  0.13020321    -0.78700
O215        O  0.59875516  0.09732112  0.11848417    -0.78900
C216        C  0.58895122  0.08221383  0.14344815     1.01700
Cr217      Cr  0.66235380  0.04750447  0.13739462     1.93700
Cr218      Cr  0.73250493  0.09307464  0.12705839     1.93200
Cr219      Cr  0.65084185  0.10869368  0.09862553     1.39100
O220        O  0.68154710  0.08293905  0.12156016    -1.24000
O221        O  0.13420326  0.24683959  0.91213020    -0.86200
O222        O  0.20852245  0.26234743  0.89054520    -0.83300
C223        C  0.24454120  0.26004241  0.88245139     0.97300
O224        O  0.25858463  0.23374599  0.87560014    -0.83300
O225        O  0.24571681  0.18973245  0.92613745    -0.85900
C226        C  0.22880603  0.16923495  0.94337549     1.01800
O227        O  0.19679358  0.15722903  0.93389735    -0.78700
O228        O  0.14956784  0.20707042  0.94332735    -0.78900
C229        C  0.13920603  0.23487225  0.94024836     1.01700
O230        O  0.11825177  0.21807771  0.84871678    -0.86200
O231        O  0.19728129  0.23479943  0.82819871    -0.83300
C232        C  0.22032198  0.21434731  0.81617847     0.97300
O233        O  0.22707439  0.18984278  0.83172612    -0.83300
O234        O  0.22250939  0.14486869  0.87820133    -0.85900
C235        C  0.19068870  0.12935200  0.87397620     1.01700
O236        O  0.15688104  0.14214095  0.87677948    -0.78700
O237        O  0.10085704  0.18960576  0.89040607    -0.78900
C238        C  0.09169821  0.20341667  0.86445292     1.01700
Cr239      Cr  0.16558124  0.23730775  0.87072465     1.93700
Cr240      Cr  0.23446814  0.19052323  0.87876615     1.93200
Cr241      Cr  0.15308028  0.17623068  0.90883188     1.39100
O242        O  0.18412618  0.20141188  0.88549753    -1.24000
O243        O  0.38627197  0.05931946  0.07652248    -0.86200
O244        O  0.32322668  0.09276011  0.05593074    -0.83300
C245        C  0.28935988  0.10485089  0.05536462     0.97300
O246        O  0.26873887  0.10623758  0.08098529    -0.83300
O247        O  0.24871541  0.04792699  0.11004997    -0.85900
C248        C  0.25466806  0.02318159  0.12608804     1.01800
O249        O  0.28760482  0.01965761  0.14036670    -0.78700
O250        O  0.34722424  0.02182552  0.09314585    -0.78900
C251        C  0.36875353  0.03392177  0.07095676     1.01700
O252        O  0.39786049  0.10200825  0.12939403    -0.86200
O253        O  0.33460810  0.13934539  0.10311890    -0.83300
C254        C  0.30898672  0.14780940  0.12392837     0.97300
O255        O  0.29340414  0.12771236  0.14231028    -0.83300
O256        O  0.27094116  0.07269571  0.17047021    -0.85900
C257        C  0.29742626  0.06727392  0.19138541     1.01700
O258        O  0.33197872  0.05836205  0.18237615    -0.78700
O259        O  0.39846153  0.05274922  0.13959017    -0.78900
C260        C  0.41634060  0.07852709  0.13992470     1.01700
Cr261      Cr  0.35800345  0.09678730  0.09379877     1.93700
Cr262      Cr  0.27448734  0.08760081  0.12510183     1.93200
Cr263      Cr  0.34060463  0.04066035  0.13749502     1.39100
O264        O  0.32419954  0.07518709  0.11890257    -1.24000
O265        O  0.36382857  0.46062437  0.94270954    -0.86200
O266        O  0.31410383  0.41242701  0.93824473    -0.83300
C267        C  0.28240656  0.42481939  0.94786618     0.97300
O268        O  0.26406345  0.44412596  0.93025507    -0.83300
O269        O  0.24586215  0.48444377  0.87793280    -0.85900
C270        C  0.25892274  0.51139449  0.88236532     1.01800
O271        O  0.29516942  0.51548863  0.88848613    -0.78700
O272        O  0.36866294  0.50278938  0.91241651    -0.78900
C273        C  0.36933550  0.48931945  0.94022899     1.01700
O274        O  0.40596510  0.44119379  0.88689366    -0.86200
O275        O  0.34793867  0.39397798  0.87844540    -0.83300
C276        C  0.31371686  0.38139129  0.87757189     0.97300
O277        O  0.28301999  0.39720720  0.88393461    -0.83300
O278        O  0.27634280  0.44064268  0.83493565    -0.85900
C279        C  0.28385619  0.46419066  0.81767445     1.01700
O280        O  0.30781659  0.48500807  0.82817511    -0.78700
O281        O  0.38774890  0.47329513  0.84867383    -0.78900
C282        C  0.41425528  0.45687478  0.86194327     1.01700
Cr283      Cr  0.35543239  0.42941947  0.90901379     1.93700
Cr284      Cr  0.27185136  0.44268011  0.88248696     1.93200
Cr285      Cr  0.33913624  0.49059279  0.87060162     1.39100
O286        O  0.32251789  0.45436964  0.88677273    -1.24000
O287        O  0.12832643  0.28629774  0.09238631    -0.86200
O288        O  0.20048292  0.27098496  0.11370589    -0.83300
C289        C  0.23652250  0.27150722  0.12130147     0.97300
O290        O  0.25256896  0.29730662  0.12772557    -0.83300
O291        O  0.24057155  0.34228554  0.07720004    -0.85900
C292        C  0.22353059  0.36267730  0.06006297     1.01800
O293        O  0.19152992  0.37472676  0.06920179    -0.78700
O294        O  0.14346830  0.32616179  0.06128225    -0.78900
C295        C  0.13385677  0.29826381  0.06425538     1.01700
O296        O  0.11260018  0.31579540  0.15628439    -0.86200
O297        O  0.19003037  0.29836262  0.17711389    -0.83300
C298        C  0.21388657  0.31863352  0.18876924     0.97300
O299        O  0.22451986  0.34177385  0.17210034    -0.83300
O300        O  0.21931760  0.38727362  0.12542112    -0.85900
C301        C  0.18786472  0.40323331  0.12939259     1.01700
O302        O  0.15367398  0.39082031  0.12719606    -0.78700
O303        O  0.09590784  0.34420601  0.11462823    -0.78900
C304        C  0.08651651  0.33071969  0.14074184     1.01700
Cr305      Cr  0.15908852  0.29600725  0.13407769     1.93700
Cr306      Cr  0.23005051  0.34125787  0.12480810     1.93200
Cr307      Cr  0.14824021  0.35674074  0.09555647     1.39100
O308        O  0.17892027  0.33141138  0.11890888    -1.24000
O309        O  0.62585381  0.50334600  0.91130644    -0.86200
O310        O  0.69903272  0.51878006  0.88946755    -0.83300
C311        C  0.73568849  0.51619969  0.88441104     0.97300
O312        O  0.75071806  0.48989038  0.88019691    -0.83300
O313        O  0.73517052  0.44701012  0.93072888    -0.85900
C314        C  0.71777660  0.42656093  0.94765899     1.01800
O315        O  0.68588813  0.41433161  0.93814105    -0.78700
O316        O  0.63572266  0.46248974  0.94258230    -0.78900
C317        C  0.62804789  0.49085125  0.93945404     1.01700
O318        O  0.61079510  0.47294932  0.84794235    -0.86200
O319        O  0.68922804  0.48779348  0.82785154    -0.83300
C320        C  0.71383167  0.46737047  0.81785479     0.97300
O321        O  0.72523012  0.44559800  0.83595390    -0.83300
O322        O  0.71848671  0.40128025  0.88322870    -0.85900
C323        C  0.68844310  0.38443557  0.87738131     1.01700
O324        O  0.65346770  0.39572351  0.87858099    -0.78700
O325        O  0.59301071  0.44179051  0.88726686    -0.78900
C326        C  0.58436780  0.45689014  0.86199969     1.01700
Cr327      Cr  0.65750971  0.49226355  0.87032617     1.93700
Cr328      Cr  0.72770362  0.44697738  0.88316462     1.93200
Cr329      Cr  0.64426246  0.43098106  0.90913366     1.39100
O330        O  0.67621332  0.45677092  0.88684828    -1.24000
O331        O  0.86194238  0.32630390  0.06080813    -0.86200
O332        O  0.81361011  0.37557365  0.06703454    -0.83300
C333        C  0.78131665  0.36378505  0.05782103     0.97300
O334        O  0.76397142  0.34329293  0.07477975    -0.83300
O335        O  0.74960060  0.29972050  0.12529395    -0.85900
C336        C  0.76433628  0.27342031  0.12029492     1.01800
O337        O  0.80058041  0.27095951  0.11321102    -0.78700
O338        O  0.87485144  0.28625594  0.09240307    -0.78900
C339        C  0.87117239  0.29827850  0.06422584     1.01700
O340        O  0.90718140  0.34526570  0.11484072    -0.86200
O341        O  0.84910371  0.39205229  0.12617738    -0.83300
C342        C  0.81463485  0.40394123  0.12850969     0.97300
O343        O  0.78372995  0.38800869  0.12274646    -0.83300
O344        O  0.77696177  0.34340983  0.16963776    -0.85900
C345        C  0.78639790  0.31999304  0.18615035     1.01700
O346        O  0.81071757  0.30003197  0.17500983    -0.78700
O347        O  0.88932744  0.31583907  0.15559078    -0.78900
C348        C  0.91589406  0.33100095  0.14057142     1.01700
Cr349      Cr  0.85576573  0.35756982  0.09459476     1.93700
Cr350      Cr  0.77299291  0.34260383  0.12229800     1.93200
Cr351      Cr  0.84268058  0.29656912  0.13303255     1.39100
O352        O  0.82403485  0.33220625  0.11728272    -1.24000
C353        C  0.71253322  0.41036879  0.00537051    -0.02700
C354        C  0.73580850  0.41361351  0.97692860     0.07000
C355        C  0.77284428  0.39867871  0.97443728    -0.02800
C356        C  0.78638547  0.38025717  0.00020768    -0.02800
C357        C  0.76319403  0.37707423  0.02871609     0.07100
C358        C  0.72633254  0.39227310  0.03133017    -0.03000
Br359      Br  0.69573037  0.38997158  0.07112778    -0.01600
Br360      Br  0.66199011  0.43118766  0.00934575    -0.01600
Br361      Br  0.83635174  0.35872839  0.99569488    -0.01600
Br362      Br  0.80413698  0.40182394  0.93501626    -0.01600
C363        C  0.02218031  0.30340574  0.15590579    -0.02700
C364        C  0.04364031  0.33130535  0.15089232     0.07000
C365        C  0.02224495  0.35940044  0.14920441    -0.02800
C366        C  0.98015446  0.35937174  0.15003891    -0.02800
C367        C  0.95861597  0.33122913  0.15095344     0.07100
C368        C  0.97989367  0.30326042  0.15509976    -0.03000
Br369      Br  0.95174031  0.26422405  0.15526596    -0.01600
Br370      Br  0.05044155  0.26477798  0.16034942    -0.01600
Br371      Br  0.95172355  0.39814742  0.14880165    -0.01600
Br372      Br  0.05049974  0.39818882  0.14414135    -0.01600
C373        C  0.52051690  0.48464678  0.84627295    -0.02700
C374        C  0.54178447  0.45668515  0.85080540     0.07000
C375        C  0.52029267  0.42853658  0.85019725    -0.02800
C376        C  0.47813210  0.42847608  0.85027100    -0.02800
C377        C  0.45671585  0.45660719  0.85026155     0.07100
C378        C  0.47819040  0.48453563  0.84546439    -0.03000
Br379      Br  0.44998319  0.52308333  0.84024450    -0.01600
Br380      Br  0.54873926  0.52361201  0.84443541    -0.01600
Br381      Br  0.44955622  0.38960165  0.85075623    -0.01600
Br382      Br  0.54887761  0.38988829  0.84932236    -0.01600
C383        C  0.28721246  0.41305040  0.00675788    -0.02700
C384        C  0.26507573  0.41244241  0.97767158     0.07000
C385        C  0.23099743  0.39370942  0.97519135    -0.02800
C386        C  0.21933870  0.37523693  0.00155667    -0.02800
C387        C  0.24135814  0.37576930  0.03071490     0.07100
C388        C  0.27463715  0.39541828  0.03359010    -0.03000
Br389      Br  0.30083348  0.40035976  0.07498754    -0.01600
Br390      Br  0.33475024  0.43790587  0.01025851    -0.01600
Br391      Br  0.17287509  0.34944447  0.99709171    -0.01600
Br392      Br  0.20167745  0.39167245  0.93485271    -0.01600
C393        C  0.33418030  0.01846396  0.01937782    -0.02700
C394        C  0.36992068  0.02081218  0.03722597     0.07000
C395        C  0.40611314  0.01336259  0.02139599    -0.02800
C396        C  0.40603775  0.00258947  0.98882314    -0.02800
C397        C  0.37274431  0.50664519  0.97171569     0.07100
C398        C  0.33459242  0.01011646  0.98635164    -0.03000
Br399      Br  0.28488674  0.00711973  0.96341809    -0.01600
Br400      Br  0.28380544  0.02613033  0.04001929    -0.01600
Br401      Br  0.45332586  0.48351731  0.97481630    -0.01600
Br402      Br  0.45532424  0.01598702  0.04507934    -0.01600
C403        C  0.22922032  0.47862007  0.15916502    -0.02700
C404        C  0.22428029  0.99753897  0.13025876     0.07000
C405        C  0.19819406  0.98799389  0.10525418    -0.02800
C406        C  0.18609916  0.45698461  0.10575371    -0.02800
C407        C  0.19275564  0.43716801  0.13264531     0.07100
C408        C  0.21210621  0.44882565  0.16003431    -0.03000
Br409      Br  0.21604249  0.42307040  0.19846157    -0.01600
Br410      Br  0.25343912  0.49365306  0.19855224    -0.01600
Br411      Br  0.15627082  0.44216261  0.06906092    -0.01600
Br412      Br  0.18707300  0.01471362  0.06889564    -0.01600
C413        C  0.29865702  0.23682996  0.11581951    -0.02700
C414        C  0.25781166  0.24089105  0.12369530     0.07000
C415        C  0.23528245  0.21432487  0.13273236    -0.02800
C416        C  0.25137650  0.18454429  0.12973357    -0.02800
C417        C  0.29271994  0.18029612  0.12426655     0.07100
C418        C  0.31636359  0.20691277  0.11755406    -0.03000
Br419      Br  0.37297484  0.20272317  0.11076590    -0.01600
Br420      Br  0.33011311  0.27160293  0.10099217    -0.01600
Br421      Br  0.21409253  0.15025518  0.12789994    -0.01600
Br422      Br  0.18248314  0.21770225  0.15181098    -0.01600
C423        C  0.22142605  0.08544464  0.84532884    -0.02700
C424        C  0.19529999  0.09550939  0.86965781     0.07000
C425        C  0.18405934  0.07462397  0.89470119    -0.02800
C426        C  0.20205568  0.04504255  0.89692414    -0.02800
C427        C  0.23281358  0.03691659  0.87514524     0.07100
C428        C  0.24107739  0.05691847  0.84855240    -0.03000
Br429      Br  0.28060724  0.04663089  0.81672598    -0.01600
Br430      Br  0.23131112  0.11187867  0.80807833    -0.01600
Br431      Br  0.18633297  0.01663585  0.93089123    -0.01600
Br432      Br  0.14687027  0.08752284  0.92763804    -0.01600
C433        C  0.32227931  0.32482467  0.89298954    -0.02700
C434        C  0.30702239  0.34772388  0.87171197     0.07000
C435        C  0.27587288  0.33957398  0.85061112    -0.02800
C436        C  0.25533549  0.31136123  0.85463210    -0.02800
C437        C  0.26856445  0.28901681  0.87745661     0.07100
C438        C  0.30382195  0.29518262  0.89507452    -0.03000
Br439      Br  0.32496860  0.26396031  0.92375834    -0.01600
Br440      Br  0.36660131  0.33467218  0.92073764    -0.01600
Br441      Br  0.20776690  0.30473243  0.82942574    -0.01600
Br442      Br  0.26127052  0.36768134  0.81602438    -0.01600
C443        C  0.17117067  0.25601981  0.98978733    -0.02700
C444        C  0.13659369  0.25329922  0.97063373     0.07000
C445        C  0.10053919  0.26578623  0.98229173    -0.02800
C446        C  0.09881631  0.27930110  0.01361583    -0.02800
C447        C  0.13291620  0.27985945  0.03374098     0.07100
C448        C  0.16950297  0.26952560  0.02065896    -0.03000
Br449      Br  0.21905837  0.27736188  0.04261435    -0.01600
Br450      Br  0.22222834  0.24348790  0.97266903    -0.01600
Br451      Br  0.05105987  0.29960296  0.02793078    -0.01600
Br452      Br  0.05419162  0.26488522  0.95499668    -0.01600
C453        C  0.23347417  0.12461969  0.02155100    -0.02700
C454        C  0.27484550  0.12027025  0.02555577     0.07000
C455        C  0.30191415  0.13444815  0.00325428    -0.02800
C456        C  0.28733946  0.15168537  0.97672759    -0.02800
C457        C  0.24598607  0.15666790  0.97359089     0.07100
C458        C  0.21950021  0.14452137  0.99733097    -0.03000
Br459      Br  0.16359556  0.15584430  0.99820720    -0.01600
Br460      Br  0.19468696  0.10187890  0.04745506    -0.01600
Br461      Br  0.32448069  0.16732995  0.94445390    -0.01600
Br462      Br  0.35923721  0.13173238  0.00852523    -0.01600
C463        C  0.73215337  0.19628803  0.15644849    -0.02700
C464        C  0.69959793  0.18826867  0.13676856     0.07000
C465        C  0.68416626  0.21049618  0.11486940    -0.02800
C466        C  0.70432199  0.23903964  0.11007908    -0.02800
C467        C  0.74042316  0.24496269  0.12654058     0.07100
C468        C  0.75360833  0.22365645  0.15042160    -0.03000
Br469      Br  0.80224099  0.23041861  0.17433416    -0.01600
Br470      Br  0.74823021  0.16863283  0.19108469    -0.01600
Br471      Br  0.68474873  0.26852084  0.07866712    -0.01600
Br472      Br  0.63716545  0.20112500  0.08990949    -0.01600
C473        C  0.80100607  0.98910366  0.11976786    -0.02700
C474        C  0.76352907  0.99494851  0.13418334     0.07000
C475        C  0.75843105  0.47339488  0.15518185    -0.02800
C476        C  0.77950131  0.44542227  0.15792224    -0.02800
C477        C  0.80790859  0.43728441  0.13430850     0.07100
C478        C  0.81888653  0.45926091  0.11034808    -0.03000
Br479      Br  0.86001691  0.44933762  0.07937912    -0.01600
Br480      Br  0.82582343  0.02036658  0.09280199    -0.01600
Br481      Br  0.76824679  0.41711998  0.19334780    -0.01600
Br482      Br  0.71977057  0.48347590  0.18814445    -0.01600
C483        C  0.66556135  0.02216283  0.02171127    -0.02700
C484        C  0.63021867  0.03258195  0.03658426     0.07000
C485        C  0.59528774  0.03438607  0.01740130    -0.02800
C486        C  0.59163226  0.52109340  0.98403107    -0.02800
C487        C  0.62690891  0.50913670  0.97027771     0.07100
C488        C  0.66565715  0.01291379  0.98908426    -0.03000
Br489      Br  0.71592188  0.00801190  0.96742058    -0.01600
Br490      Br  0.71539540  0.02298042  0.04492216    -0.01600
Br491      Br  0.54488843  0.52435195  0.95741724    -0.01600
Br492      Br  0.54964909  0.05583906  0.03422775    -0.01600
C493        C  0.52353160  0.10893538  0.15301199    -0.02700
C494        C  0.54567101  0.08129380  0.15229510     0.07000
C495        C  0.52504306  0.05286427  0.15370901    -0.02800
C496        C  0.48280504  0.05203325  0.15349473    -0.02800
C497        C  0.46023029  0.07983618  0.14919015     0.07100
C498        C  0.48134281  0.10842755  0.15097268    -0.03000
Br499      Br  0.45382033  0.14760182  0.15089226    -0.01600
Br500      Br  0.55178144  0.14777855  0.15681878    -0.01600
Br501      Br  0.45785240  0.01178494  0.15909297    -0.01600
Br502      Br  0.55467432  0.01454173  0.15243653    -0.01600
C503        C  0.83974250  0.26787282  0.98285350    -0.02700
C504        C  0.87555242  0.25683773  0.96939944     0.07000
C505        C  0.90958676  0.25499905  0.98957822    -0.02800
C506        C  0.90866682  0.26720746  0.02152172    -0.02800
C507        C  0.87302627  0.27967072  0.03398805     0.07100
C508        C  0.83820485  0.27801777  0.01505967    -0.03000
Br509      Br  0.78708600  0.28676533  0.03431330    -0.01600
Br510      Br  0.79124453  0.26676727  0.95824203    -0.01600
Br511      Br  0.95506336  0.26561990  0.04874356    -0.01600
Br512      Br  0.95638970  0.23429443  0.97390176    -0.01600
C513        C  0.70556717  0.29991904  0.89819954    -0.02700
C514        C  0.73833218  0.29367440  0.87748232     0.07000
C515        C  0.74643202  0.31465191  0.85164772    -0.02800
C516        C  0.72559329  0.34283100  0.84907031    -0.02800
C517        C  0.69678715  0.35095829  0.87242215     0.07100
C518        C  0.68568771  0.32881703  0.89624178    -0.03000
Br519      Br  0.64592617  0.33925113  0.92818797    -0.01600
Br520      Br  0.68847479  0.26975911  0.93007433    -0.01600
Br521      Br  0.73740369  0.37122227  0.81387390    -0.01600
Br522      Br  0.78531190  0.30472478  0.81864250    -0.01600
C523        C  0.79745445  0.05031829  0.89656690    -0.02700
C524        C  0.76184325  0.04498267  0.87918098     0.07000
C525        C  0.74986615  0.06669270  0.85526992    -0.02800
C526        C  0.77138124  0.09430011  0.85068645    -0.02800
C527        C  0.80371468  0.10149158  0.87099628     0.07100
C528        C  0.81797011  0.07881187  0.89291462    -0.03000
Br529      Br  0.86326835  0.08776881  0.92007589    -0.01600
Br530      Br  0.81105134  0.51981127  0.93102769    -0.01600
Br531      Br  0.75553994  0.12339398  0.81729967    -0.01600
Br532      Br  0.70399798  0.05903547  0.82814085    -0.01600
C533        C  0.98431947  0.17580934  0.85565484    -0.02700
C534        C  0.96323249  0.20411581  0.85458410     0.07000
C535        C  0.98531226  0.23190225  0.85046506    -0.02800
C536        C  0.02766980  0.23154340  0.85053410    -0.02800
C537        C  0.04858035  0.20342724  0.85470991     0.07100
C538        C  0.02651256  0.17548885  0.85573262    -0.03000
Br539      Br  0.05426031  0.13644676  0.85806319    -0.01600
Br540      Br  0.95536407  0.13709713  0.85784240    -0.01600
Br541      Br  0.05678744  0.27012395  0.84855143    -0.01600
Br542      Br  0.95798895  0.27106597  0.84838723    -0.01600
C543        C  0.79451402  0.15675424  0.00660563    -0.02700
C544        C  0.76977618  0.16093225  0.97922659     0.07000
C545        C  0.73266906  0.14584619  0.97765450    -0.02800
C546        C  0.71964145  0.12755125  0.00383102    -0.02800
C547        C  0.74388027  0.12392414  0.03161778     0.07100
C548        C  0.78172439  0.13806238  0.03267419    -0.03000
Br549      Br  0.81533077  0.13320309  0.07040389    -0.01600
Br550      Br  0.84559613  0.17733102  0.00897509    -0.01600
Br551      Br  0.66871019  0.10696322  0.00079506    -0.01600
Br552      Br  0.70068849  0.14848557  0.93873045    -0.01600
C553        C  0.70492974  0.31302645  0.25134672    -0.02700
C554        C  0.72762965  0.30698198  0.27951222     0.07000
C555        C  0.76996335  0.30308568  0.27588768    -0.02800
C556        C  0.78885554  0.30782439  0.24566203    -0.02800
C557        C  0.76631827  0.31503810  0.21810071     0.07100
C558        C  0.72414182  0.31701385  0.22091074    -0.03000
Br559      Br  0.69191674  0.32485427  0.18292223    -0.01600
Br560      Br  0.64761878  0.31678158  0.25392876    -0.01600
Br561      Br  0.84650522  0.30691924  0.24245031    -0.01600
Br562      Br  0.80429519  0.29038696  0.31144955    -0.01600
C563        C  0.78987518  0.47705613  0.74945169    -0.02700
C564        C  0.77413660  0.45687987  0.72582932     0.07000
C565        C  0.73768209  0.44100926  0.73327924    -0.02800
C566        C  0.71570547  0.44782151  0.76150213    -0.02800
C567        C  0.73119701  0.46805960  0.78464003     0.07100
C568        C  0.76883665  0.48206684  0.77881169    -0.03000
Br569      Br  0.79224409  0.50806859  0.81121845    -0.01600
Br570      Br  0.83948753  0.49879930  0.74188221    -0.01600
Br571      Br  0.66387436  0.42918648  0.76901880    -0.01600
Br572      Br  0.71806546  0.40766603  0.70672025    -0.01600
C573        C  0.78905180  0.38007078  0.50985495    -0.02700
C574        C  0.76353818  0.39940291  0.52809012     0.07000
C575        C  0.72209846  0.39908007  0.52190187    -0.02800
C576        C  0.70628756  0.37994595  0.49767084    -0.02800
C577        C  0.73188451  0.36084149  0.47923548     0.07100
C578        C  0.77310060  0.36043839  0.48614179    -0.03000
Br579      Br  0.80792695  0.33150833  0.46458550    -0.01600
Br580      Br  0.84604434  0.37893907  0.51748792    -0.01600
Br581      Br  0.64939048  0.38150718  0.48961226    -0.01600
Br582      Br  0.68648182  0.42602091  0.54543576    -0.01600
C583        C  0.20914374  0.31484812  0.24996749    -0.02700
C584        C  0.23249809  0.31515189  0.22157299     0.07000
C585        C  0.27471939  0.31569295  0.22454791    -0.02800
C586        C  0.29312209  0.31764577  0.25531467    -0.02800
C587        C  0.26972350  0.31875565  0.28366832     0.07100
C588        C  0.22752935  0.31675627  0.28078634    -0.03000
Br589      Br  0.19418319  0.31646172  0.31901508    -0.01600
Br590      Br  0.15178788  0.31334784  0.24648007    -0.01600
Br591      Br  0.35040995  0.32120245  0.25844971    -0.01600
Br592      Br  0.30807355  0.31326151  0.18644735    -0.01600
C593        C  0.48274116  0.36320113  0.36038713    -0.02700
C594        C  0.45924533  0.33660608  0.35479091     0.07000
C595        C  0.47842446  0.30943268  0.34425429    -0.02800
C596        C  0.52062592  0.30771504  0.34346934    -0.02800
C597        C  0.54457671  0.33298354  0.35437851     0.07100
C598        C  0.52492548  0.36157119  0.36023089    -0.03000
Br599      Br  0.55435095  0.39937928  0.36801460    -0.01600
Br600      Br  0.45666039  0.40236594  0.36780596    -0.01600
Br601      Br  0.54414326  0.27013635  0.32685428    -0.01600
Br602      Br  0.44724230  0.27333417  0.33293967    -0.01600
C603        C  0.27726635  0.48577154  0.75996923    -0.02700
C604        C  0.26132720  0.46822248  0.78608786     0.07000
C605        C  0.22189015  0.45587935  0.78247139    -0.02800
C606        C  0.20161746  0.45768432  0.75232029    -0.02800
C607        C  0.21817513  0.47453081  0.72623215     0.07100
C608        C  0.25490952  0.49026400  0.73124717    -0.03000
Br609      Br  0.27432125  0.51949674  0.69915909    -0.01600
Br610      Br  0.33091064  0.50223525  0.76179956    -0.01600
Br611      Br  0.15204317  0.43564090  0.74623666    -0.01600
Br612      Br  0.19304409  0.43820236  0.81889627    -0.01600
C613        C  0.97375662  0.45288253  0.66705605    -0.02700
C614        C  0.95351834  0.43660012  0.64234048     0.07000
C615        C  0.97641289  0.42131416  0.61841188    -0.02800
C616        C  0.01849027  0.42368289  0.61825448    -0.02800
C617        C  0.03865840  0.44114026  0.64222558     0.07100
C618        C  0.01595331  0.45503775  0.66705890    -0.03000
Br619      Br  0.04271750  0.47673456  0.70152520    -0.01600
Br620      Br  0.94366543  0.47218764  0.70129370    -0.01600
Br621      Br  0.04765251  0.40532882  0.58264516    -0.01600
Br622      Br  0.95056760  0.39945843  0.58336621    -0.01600
C623        C  0.27053932  0.40348762  0.52610660    -0.02700
C624        C  0.22975473  0.41196201  0.52750623     0.07000
C625        C  0.20397281  0.40216776  0.50195266    -0.02800
C626        C  0.21895749  0.38420588  0.47619592    -0.02800
C627        C  0.25903976  0.37464365  0.47621623     0.07100
C628        C  0.28409838  0.38324619  0.50208666    -0.03000
Br629      Br  0.33759992  0.36681638  0.50522974    -0.01600
Br630      Br  0.31024450  0.42201052  0.55403282    -0.01600
Br631      Br  0.18488060  0.37429344  0.43985336    -0.01600
Br632      Br  0.14813837  0.41355595  0.50003786    -0.01600
C633        C  0.23062392  0.08709159  0.26263109    -0.02700
C634        C  0.24380218  0.06679445  0.28688957     0.07000
C635        C  0.27923926  0.04972834  0.28153800    -0.02800
C636        C  0.29811593  0.04992183  0.25076216    -0.02800
C637        C  0.28431615  0.06999014  0.22608292     0.07100
C638        C  0.25234393  0.09033218  0.23358506    -0.03000
Br639      Br  0.24056667  0.12552967  0.20641046    -0.01600
Br640      Br  0.18309999  0.11132463  0.26987126    -0.01600
Br641      Br  0.34232771  0.02239596  0.24300428    -0.01600
Br642      Br  0.30435197  0.02803134  0.31669850    -0.01600
C643        C  0.16408996  0.02786817  0.48971110    -0.02700
C644        C  0.12973176  0.03573027  0.47210475     0.07000
C645        C  0.09224250  0.03318184  0.48758432    -0.02800
C646        C  0.08937411  0.02197562  0.52013845    -0.02800
C647        C  0.12792278  0.50989285  0.53831406     0.07100
C648        C  0.16409996  0.51172453  0.52070975    -0.03000
Br649      Br  0.21405215  0.50124434  0.54036034    -0.01600
Br650      Br  0.21599248  0.03243776  0.46974746    -0.01600
Br651      Br  0.03888435  0.02155647  0.54208720    -0.01600
Br652      Br  0.04558855  0.04672376  0.46450179    -0.01600
C653        C  0.30049643  0.98697053  0.39982118    -0.02700
C654        C  0.26519105  0.99349076  0.38254949     0.07000
C655        C  0.24994078  0.47372391  0.36014352    -0.02800
C656        C  0.27138699  0.44674960  0.35360205    -0.02800
C657        C  0.30392190  0.43831911  0.37322255     0.07100
C658        C  0.31833034  0.45937471  0.39657889    -0.03000
Br659      Br  0.36121504  0.44761112  0.42520372    -0.01600
Br660      Br  0.31923449  0.01519164  0.43244012    -0.01600
Br661      Br  0.25430289  0.41977851  0.31895947    -0.01600
Br662      Br  0.20080795  0.48056326  0.33677268    -0.01600
C663        C  0.20964762  0.23756052  0.39276858    -0.02700
C664        C  0.24515376  0.24445360  0.37573045     0.07000
C665        C  0.25945779  0.22350089  0.35223221    -0.02800
C666        C  0.23987209  0.19519682  0.34741512    -0.02800
C667        C  0.20742617  0.18666188  0.36727551     0.07100
C668        C  0.19117557  0.20842209  0.38900452    -0.03000
Br669      Br  0.14653727  0.19722644  0.41640224    -0.01600
Br670      Br  0.18856330  0.26661965  0.42360748    -0.01600
Br671      Br  0.25874540  0.16700265  0.31461123    -0.01600
Br672      Br  0.30685099  0.23245192  0.32702536    -0.01600
C673        C  0.24807188  0.24175787  0.73046330    -0.02700
C674        C  0.28572189  0.22745046  0.72551514     0.07000
C675        C  0.30316522  0.21135693  0.75157725    -0.02800
C676        C  0.28287736  0.20890658  0.78167465    -0.02800
C677        C  0.24295137  0.21986419  0.78515547     0.07100
C678        C  0.22607380  0.23672307  0.75927179    -0.03000
Br679      Br  0.17152152  0.25095451  0.76165489    -0.01600
Br680      Br  0.22594441  0.26883805  0.69777571    -0.01600
Br681      Br  0.31171816  0.19180622  0.81818936    -0.01600
Br682      Br  0.35338058  0.19049640  0.74539386    -0.01600
C683        C  0.24426003  0.10406680  0.62543613    -0.02700
C684        C  0.28593353  0.10679669  0.62939964     0.07000
C685        C  0.30972937  0.07989634  0.62689980    -0.02800
C686        C  0.29190289  0.05050873  0.62201345    -0.02800
C687        C  0.25011955  0.04790245  0.61866792     0.07100
C688        C  0.22706734  0.07530611  0.61823496    -0.03000
Br689      Br  0.17197482  0.07466008  0.60479587    -0.01600
Br690      Br  0.20943748  0.13962995  0.62891455    -0.01600
Br691      Br  0.32803440  0.51376093  0.61354313    -0.01600
Br692      Br  0.36662050  0.08291166  0.63229443    -0.01600
C693        C  0.18963567  0.32911157  0.62514968    -0.02700
C694        C  0.21412812  0.35559362  0.62910810     0.07000
C695        C  0.25587612  0.35251207  0.62629944    -0.02800
C696        C  0.27244678  0.32406889  0.61763211    -0.02800
C697        C  0.24866734  0.29693269  0.61645452     0.07100
C698        C  0.20683936  0.29978577  0.61919234    -0.03000
Br699      Br  0.17302333  0.26387383  0.61515627    -0.01600
Br700      Br  0.13265471  0.33259795  0.63059805    -0.01600
Br701      Br  0.32807952  0.32337403  0.60512665    -0.01600
Br702      Br  0.29182795  0.38687703  0.63423948    -0.01600
C703        C  0.41135021  0.26042238  0.51633071    -0.02700
C704        C  0.37576496  0.25724237  0.53477404     0.07000
C705        C  0.33911539  0.26381234  0.51925065    -0.02800
C706        C  0.33812936  0.27459562  0.48698835    -0.02800
C707        C  0.37359307  0.28007248  0.46947249     0.07100
C708        C  0.41026102  0.27224590  0.48398057    -0.03000
Br709      Br  0.45860096  0.27856326  0.45956829    -0.01600
Br710      Br  0.46164094  0.25000382  0.53578553    -0.01600
Br711      Br  0.28729152  0.28168697  0.46643687    -0.01600
Br712      Br  0.28900462  0.25725022  0.54096935    -0.01600
C713        C  0.23142590  0.16111129  0.52384063    -0.02700
C714        C  0.27261525  0.16115191  0.53062702     0.07000
C715        C  0.29838752  0.14142749  0.51305082    -0.02800
C716        C  0.28396408  0.12495103  0.48627394    -0.02800
C717        C  0.24295867  0.12598551  0.47866219     0.07100
C718        C  0.21646738  0.14223425  0.49923436    -0.03000
Br719      Br  0.15907975  0.13793404  0.49524644    -0.01600
Br720      Br  0.19487929  0.18778061  0.54692202    -0.01600
Br721      Br  0.32149000  0.10215954  0.46003203    -0.01600
Br722      Br  0.35304998  0.13468257  0.52652143    -0.01600
C723        C  0.74396197  0.04732887  0.27821189    -0.02700
C724        C  0.78371816  0.05854489  0.28190809     0.07000
C725        C  0.80247753  0.07226616  0.25476854    -0.02800
C726        C  0.78157922  0.07550540  0.22498914    -0.02800
C727        C  0.74038537  0.06712709  0.22249667     0.07100
C728        C  0.72195606  0.05312715  0.24962338    -0.03000
Br729      Br  0.66540585  0.04428382  0.24910019    -0.01600
Br730      Br  0.71923750  0.02228731  0.31173534    -0.01600
Br731      Br  0.81105600  0.09030951  0.18753725    -0.01600
Br732      Br  0.85625801  0.08784802  0.25865479    -0.01600
C733        C  0.80793787  0.19500197  0.40594266    -0.02700
C734        C  0.80527257  0.17550986  0.37845692     0.07000
C735        C  0.78806087  0.18721974  0.34989902    -0.02800
C736        C  0.76803405  0.21582567  0.35010340    -0.02800
C737        C  0.76845590  0.23490984  0.37830459     0.07100
C738        C  0.79115896  0.22499237  0.40530752    -0.03000
Br739      Br  0.79702119  0.25092762  0.44289651    -0.01600
Br740      Br  0.83081947  0.18007176  0.44611664    -0.01600
Br741      Br  0.73902734  0.22696473  0.31115166    -0.01600
Br742      Br  0.79278977  0.16398730  0.31006876    -0.01600
C743        C  0.75581714  0.46397503  0.35306000    -0.02700
C744        C  0.75141348  0.98127166  0.38905936     0.07000
C745        C  0.70965674  0.97771950  0.39175136    -0.02800
C746        C  0.69290705  0.44828134  0.39526457    -0.02800
C747        C  0.70867675  0.42511701  0.37431609     0.07100
C748        C  0.73789190  0.43449265  0.35114501    -0.03000
Br749      Br  0.75314518  0.40830285  0.31521913    -0.01600
Br750      Br  0.79557396  0.47588523  0.32121504    -0.01600
Br751      Br  0.64560273  0.44103373  0.42121856    -0.01600
Br752      Br  0.67632054  0.01352025  0.39764576    -0.01600
C753        C  0.83530670  0.01534115  0.48773960    -0.02700
C754        C  0.87161222  0.01573383  0.47009019     0.07000
C755        C  0.90615188  0.00502756  0.48607186    -0.02800
C756        C  0.90455315  0.99512901  0.51912758    -0.02800
C757        C  0.86903855  0.49853531  0.53703318     0.07100
C758        C  0.83404399  0.00700935  0.52095794    -0.03000
Br759      Br  0.78262762  0.49882827  0.53933988    -0.01600
Br760      Br  0.78586142  0.02459887  0.46678277    -0.01600
Br761      Br  0.95153273  0.97810874  0.53898661    -0.01600
Br762      Br  0.95474502  0.00131070  0.46151461    -0.01600
C763        C  0.98647230  0.10396900  0.35061347    -0.02700
C764        C  0.96788532  0.07467052  0.35548119     0.07000
C765        C  0.99263921  0.04788434  0.35493790    -0.02800
C766        C  0.03464805  0.05091482  0.35457566    -0.02800
C767        C  0.05271083  0.08042062  0.35437711     0.07100
C768        C  0.02849768  0.10682565  0.35122026    -0.03000
Br769      Br  0.05324449  0.14719641  0.34856815    -0.01600
Br770      Br  0.95525678  0.14049196  0.34142033    -0.01600
Br771      Br  0.06750866  0.01430844  0.35806107    -0.01600
Br772      Br  0.97086693  0.00631535  0.35549634    -0.01600
C773        C  0.77249867  0.19944575  0.72720917    -0.02700
C774        C  0.73184935  0.20800907  0.72280243     0.07000
C775        C  0.71085317  0.22032929  0.74939539    -0.02800
C776        C  0.72984162  0.22361072  0.77981890    -0.02800
C777        C  0.77003419  0.21436905  0.78428594     0.07100
C778        C  0.79098717  0.20196781  0.75789273    -0.03000
Br779      Br  0.84403843  0.18599274  0.76465236    -0.01600
Br780      Br  0.80433748  0.18520877  0.69116141    -0.01600
Br781      Br  0.70003287  0.24036119  0.81569405    -0.01600
Br782      Br  0.65519626  0.23079651  0.74494625    -0.01600
C783        C  0.60454634  0.26356872  0.52362801    -0.02700
C784        C  0.63663512  0.24441391  0.53270673     0.07000
C785        C  0.66684154  0.23925405  0.50961472    -0.02800
C786        C  0.66090812  0.24595237  0.47663319    -0.02800
C787        C  0.62942535  0.26564784  0.46668591     0.07100
C788        C  0.60199255  0.27544365  0.49124692    -0.03000
Br789      Br  0.56003530  0.30441970  0.48142843    -0.01600
Br790      Br  0.56540585  0.27457094  0.55578820    -0.01600
Br791      Br  0.69618581  0.22583285  0.44647118    -0.01600
Br792      Br  0.71959032  0.22788749  0.52394560    -0.01600
C793        C  0.73095809  0.30509103  0.63651155    -0.02700
C794        C  0.75650640  0.28013663  0.62886551     0.07000
C795        C  0.79772457  0.28594451  0.62499714    -0.02800
C796        C  0.81259003  0.31661946  0.62687266    -0.02800
C797        C  0.78603688  0.34175464  0.63080559     0.07100
C798        C  0.74487524  0.33560555  0.63463985    -0.03000
Br799      Br  0.70554173  0.36822561  0.63196462    -0.01600
Br800      Br  0.67672134  0.29820111  0.65160876    -0.01600
Br801      Br  0.86925736  0.32404204  0.62370816    -0.01600
Br802      Br  0.83366360  0.25236768  0.61605523    -0.01600
C803        C  0.68101329  0.06629216  0.60597502    -0.02700
C804        C  0.68926512  0.08504398  0.63311355     0.07000
C805        C  0.70801164  0.07201016  0.66019718    -0.02800
C806        C  0.72198795  0.04150588  0.65897912    -0.02800
C807        C  0.72109362  0.02460753  0.62958322     0.07100
C808        C  0.69683194  0.03602702  0.60420387    -0.03000
Br809      Br  0.68613352  0.51034778  0.56552876    -0.01600
Br810      Br  0.65100446  0.08292029  0.57000288    -0.01600
Br811      Br  0.73983628  0.02272910  0.69866176    -0.01600
Br812      Br  0.71640067  0.09673830  0.69846414    -0.01600
C813        C  0.52687134  0.21517115  0.66434737    -0.02700
C814        C  0.54648575  0.18984233  0.65001700     0.07000
C815        C  0.52341016  0.16427856  0.63997742    -0.02800
C816        C  0.48156012  0.16644844  0.63783246    -0.02800
C817        C  0.46163955  0.19364800  0.64826684     0.07100
C818        C  0.48474075  0.21699173  0.66373328    -0.03000
Br819      Br  0.45979448  0.25234738  0.68385466    -0.01600
Br820      Br  0.55717623  0.24823640  0.68394368    -0.01600
Br821      Br  0.45384259  0.13252009  0.61730888    -0.01600
Br822      Br  0.54939842  0.12565764  0.62938839    -0.01600
C823        C  0.78867810  0.13792061  0.53496884    -0.02700
C824        C  0.74883741  0.14800331  0.53432441     0.07000
C825        C  0.72419762  0.14025622  0.50779668    -0.02800
C826        C  0.73853641  0.12161059  0.48280673    -0.02800
C827        C  0.77909292  0.11210401  0.48254570     0.07100
C828        C  0.80367446  0.11951505  0.50964190    -0.03000
Br829      Br  0.85690784  0.10287219  0.51466349    -0.01600
Br830      Br  0.82261724  0.14808880  0.57130345    -0.01600
Br831      Br  0.69964273  0.10834913  0.45067056    -0.01600
Br832      Br  0.66985408  0.15535178  0.50482016    -0.01600
O833        O  0.64176385  0.69622664  0.56141984    -0.86200
O834        O  0.68846127  0.64770377  0.56966950    -0.83300
C835        C  0.72111624  0.65963643  0.56108129     0.97300
O836        O  0.73846720  0.67922334  0.57889456    -0.83300
O837        O  0.75061273  0.72255168  0.63041959    -0.85900
C838        C  0.73588817  0.74801654  0.62122360     1.01800
O839        O  0.70163196  0.74791972  0.60958644    -0.78700
O840        O  0.62706081  0.73602287  0.59164687    -0.78900
C841        C  0.63231545  0.72400487  0.56384303     1.01700
O842        O  0.59369150  0.67920716  0.61582499    -0.86200
O843        O  0.64872905  0.63127942  0.62762593    -0.83300
C844        C  0.68221694  0.61807642  0.62940689     0.97300
O845        O  0.71440594  0.63340503  0.62585755    -0.83300
O846        O  0.71853775  0.67799609  0.67348066    -0.85900
C847        C  0.71128054  0.70262120  0.68854682     1.01700
O848        O  0.69054493  0.72397641  0.67521054    -0.78700
O849        O  0.61268547  0.70800739  0.65634725    -0.78900
C850        C  0.58572767  0.69324801  0.64178939     1.01700
Cr851      Cr  0.64509070  0.66560526  0.59593559     1.93700
Cr852      Cr  0.72673140  0.67910240  0.62627825     1.93200
Cr853      Cr  0.65895016  0.72616041  0.63260885     1.39100
O854        O  0.67645805  0.69000546  0.61914985    -1.24000
O855        O  0.87682369  0.52589984  0.41187032    -0.86200
O856        O  0.80544798  0.51084303  0.38599036    -0.83300
C857        C  0.76862140  0.51372316  0.38183105     0.97300
O858        O  0.75338239  0.54029118  0.37958823    -0.83300
O859        O  0.76821938  0.58120264  0.43136000    -0.85900
C860        C  0.78495353  0.60112141  0.44897763     1.01800
O861        O  0.81638612  0.61422866  0.43961328    -0.78700
O862        O  0.86419414  0.56485606  0.44464511    -0.78900
C863        C  0.87259204  0.53689447  0.44045238     1.01700
O864        O  0.89522866  0.56016326  0.35015214    -0.86200
O865        O  0.81794272  0.54558178  0.32708035    -0.83300
C866        C  0.79216117  0.56544139  0.31752834     0.97300
O867        O  0.78006356  0.58634013  0.33621840    -0.83300
O868        O  0.78783324  0.62885753  0.38447804    -0.85900
C869        C  0.81908423  0.64492531  0.37951201     1.01700
O870        O  0.85340585  0.63290240  0.38158531    -0.78700
O871        O  0.91148902  0.58658203  0.39285324    -0.78900
C872        C  0.92104696  0.57456387  0.36635793     1.01700
Cr873      Cr  0.84769422  0.53890560  0.37005958     1.93700
Cr874      Cr  0.77681391  0.58319679  0.38362683     1.93200
Cr875      Cr  0.85907019  0.59740036  0.41203699     1.39100
O876        O  0.82798046  0.57304284  0.38785157    -1.24000
O877        O  0.35371687  0.76207113  0.59560417    -0.86200
O878        O  0.29449847  0.76670627  0.64207752    -0.83300
C879        C  0.26634663  0.76728019  0.62221791     0.97300
O880        O  0.25658024  0.74238543  0.60809871    -0.83300
O881        O  0.26971575  0.68376965  0.57961481    -0.85900
C882        C  0.29160855  0.68407883  0.55467843     1.01800
O883        O  0.32688810  0.69350458  0.55648012    -0.78700
O884        O  0.39078479  0.72414944  0.57945179    -0.78900
C885        C  0.37390265  0.74963008  0.57330759     1.01700
O886        O  0.40129142  0.72829495  0.64354368    -0.86200
O887        O  0.33152834  0.72693408  0.68500588    -0.83300
C888        C  0.29505730  0.72098616  0.69217697     0.97300
O889        O  0.27059345  0.71382587  0.67012572    -0.83300
O890        O  0.28775662  0.65818289  0.64082841    -0.85900
C891        C  0.30463109  0.63830461  0.62313844     1.01700
O892        O  0.33240505  0.64647925  0.60403297    -0.78700
O893        O  0.39610273  0.67947299  0.63257040    -0.80500
C894        C  0.41607832  0.70146037  0.64438612     1.01700
Cr895      Cr  0.34479156  0.74329692  0.64001694     1.93700
Cr896      Cr  0.27512643  0.70041205  0.62429245     1.93200
Cr897      Cr  0.35916157  0.68759114  0.59572979     1.39100
O898        O  0.32627187  0.70980891  0.62063470    -1.24000
O899        O  0.14514042  0.58005778  0.44564649    -0.86200
O900        O  0.19478643  0.62871226  0.43632230    -0.83300
C901        C  0.22581964  0.61658722  0.44764060     0.97300
O902        O  0.24158006  0.59424118  0.43300710    -0.83300
O903        O  0.25720690  0.54953584  0.38497492    -0.85900
C904        C  0.24091374  0.52350805  0.38919398     1.01800
O905        O  0.20426748  0.52160830  0.39470622    -0.78700
O906        O  0.13148471  0.53932870  0.41547311    -0.78900
C907        C  0.13459363  0.55224849  0.44318536     1.01700
O908        O  0.10020597  0.59652025  0.39066154    -0.86200
O909        O  0.15965012  0.64212121  0.37627248    -0.83300
C910        C  0.19420342  0.65409284  0.37468641     0.97300
O911        O  0.22496134  0.63823902  0.38150518    -0.83300
O912        O  0.23436667  0.59167191  0.33774505    -0.85900
C913        C  0.22252393  0.56910854  0.32119052     1.01700
O914        O  0.19622375  0.55017803  0.33199264    -0.78700
O915        O  0.11844361  0.56739670  0.35054091    -0.78900
C916        C  0.09153081  0.58179879  0.36539995     1.01700
Cr917      Cr  0.15215441  0.60956012  0.40997107     1.93700
Cr918      Cr  0.23514890  0.59262119  0.38509306     1.93200
Cr919      Cr  0.16389183  0.54782662  0.37411968     1.39100
O920        O  0.18359737  0.58320972  0.38890043    -1.24000
O921        O  0.10752974  0.97264747  0.57531345    -0.86200
O922        O  0.17438972  0.94406399  0.55466158    -0.83300
C923        C  0.20900712  0.93329444  0.55431294     0.97300
O924        O  0.22898885  0.93289614  0.58026972    -0.83300
O925        O  0.23977831  0.99276971  0.60842057    -0.85900
C926        C  0.22876080  0.01761056  0.62206918     1.01800
O927        O  0.19861656  0.01737167  0.64034356    -0.78700
O928        O  0.14005189  0.01185243  0.59470406    -0.78900
C929        C  0.12237029  0.99930858  0.57114110     1.01700
O930        O  0.10185681  0.92718832  0.62791459    -0.86200
O931        O  0.16735718  0.89659476  0.60202757    -0.83300
C932        C  0.19237056  0.88902739  0.62355738     0.97300
O933        O  0.20660673  0.90946188  0.64201687    -0.83300
O934        O  0.22417947  0.96585888  0.66980987    -0.85900
C935        C  0.19869195  0.97138496  0.69157273     1.01700
O936        O  0.16209427  0.97586787  0.68386162    -0.78700
O937        O  0.09250701  0.97543956  0.64089004    -0.78900
C938        C  0.07918908  0.94809359  0.63808729     1.01700
Cr939      Cr  0.13984042  0.93696537  0.59256926     1.93700
Cr940      Cr  0.22090278  0.95104691  0.62447894     1.93200
Cr941      Cr  0.14902821  0.99240786  0.63862607     1.39100
O942        O  0.16998146  0.95992597  0.61888386    -1.24000
O943        O  0.37067114  0.78830296  0.41369559    -0.86200
O944        O  0.29926201  0.77118713  0.38732920    -0.83300
C945        C  0.26250633  0.77397623  0.38246967     0.97300
O946        O  0.24690406  0.80036075  0.38035739    -0.83300
O947        O  0.25975270  0.84380190  0.43037032    -0.85900
C948        C  0.27533696  0.86540110  0.44651043     1.01800
O949        O  0.30745657  0.87741299  0.43682706    -0.78700
O950        O  0.35540150  0.82759864  0.44549137    -0.78900
C951        C  0.36661400  0.80009506  0.44199438     1.01700
O952        O  0.38850650  0.82067131  0.35103390    -0.86200
O953        O  0.31229721  0.80391704  0.32761724    -0.83300
C954        C  0.28563433  0.82256411  0.31711020     0.97300
O955        O  0.27264135  0.84398833  0.33475200    -0.83300
O956        O  0.28106407  0.88852956  0.38091745    -0.85900
C957        C  0.31243176  0.90441564  0.37578775     1.01700
O958        O  0.34670235  0.89245694  0.37861620    -0.78700
O959        O  0.40459835  0.84648571  0.39397258    -0.78900
C960        C  0.41473085  0.83385201  0.36788459     1.01700
Cr961      Cr  0.34141827  0.79920793  0.37114384     1.93700
Cr962      Cr  0.26954287  0.84324676  0.38244685     1.93200
Cr963      Cr  0.35120914  0.85871654  0.41121254     1.39100
O964        O  0.32069983  0.83345494  0.38765400    -1.24000
O965        O  0.84425370  0.99722818  0.59325183    -0.86200
O966        O  0.78336258  0.00135302  0.63961235    -0.83300
C967        C  0.75015743  0.99850239  0.62549688     0.97300
O968        O  0.74268562  0.97392871  0.60997369    -0.83300
O969        O  0.75868409  0.91498259  0.58245666    -0.85900
C970        C  0.77969419  0.91555192  0.55694411     1.01800
O971        O  0.81429561  0.92677722  0.55705864    -0.78700
O972        O  0.87976375  0.95793315  0.57762464    -0.78900
C973        C  0.86492871  0.98409540  0.57140274     1.01700
O974        O  0.89232612  0.96466801  0.64074055    -0.86200
O975        O  0.82436228  0.96184444  0.68330874    -0.83300
C976        C  0.78895182  0.95468720  0.69224638     0.97300
O977        O  0.76281883  0.94927518  0.67111606    -0.83300
O978        O  0.78250480  0.89334163  0.64477514    -0.85900
C979        C  0.79879886  0.87296247  0.62757909     1.01700
O980        O  0.82323940  0.88089922  0.60570869    -0.78700
O981        O  0.88619517  0.91525866  0.63171046    -0.78900
C982        C  0.90737007  0.93786282  0.64031823     1.01700
Cr983      Cr  0.83511631  0.97877433  0.63795896     1.93700
Cr984      Cr  0.76581768  0.93378484  0.62622029     1.93200
Cr985      Cr  0.84848331  0.92200724  0.59536074     1.39100
O986        O  0.81620801  0.94484199  0.61979342    -1.24000
O987        O  0.61632990  0.80334059  0.42970311    -0.86200
O988        O  0.68288101  0.83442246  0.45040728    -0.83300
C989        C  0.71766214  0.84551239  0.45023750     0.97300
O990        O  0.73814539  0.84599954  0.42458977    -0.83300
O991        O  0.75379437  0.78808418  0.39474765    -0.85900
C992        C  0.74493675  0.76309629  0.38039189     1.01800
O993        O  0.71117316  0.76039555  0.36751756    -0.78700
O994        O  0.65109287  0.76458032  0.41173656    -0.78900
C995        C  0.63127315  0.77692751  0.43423474     1.01700
O996        O  0.60775242  0.84731446  0.37748545    -0.86200
O997        O  0.67283170  0.88117720  0.40331503    -0.83300
C998        C  0.69845232  0.88963206  0.38253388     0.97300
O999        O  0.71335442  0.86990103  0.36379079    -0.83300
O1000       O  0.73274911  0.81544062  0.33549921    -0.85900
C1001       C  0.70869528  0.80600022  0.31454105     1.01700
O1002       O  0.67303123  0.79876946  0.32264868    -0.78700
O1003       O  0.60370712  0.79881149  0.36450935    -0.78900
C1004       C  0.58764767  0.82525683  0.36582183     1.01700
Cr1005     Cr  0.64745739  0.83968612  0.41257494     1.93700
Cr1006     Cr  0.73005963  0.82881927  0.38051774     1.93200
Cr1007     Cr  0.66052842  0.78359832  0.36808273     1.39100
O1008       O  0.67951830  0.81749715  0.38679837    -1.24000
O1009       O  0.85876793  0.71460939  0.94287500    -0.86200
O1010       O  0.80981290  0.66463919  0.93900042    -0.83300
C1011       C  0.77815989  0.67701502  0.94827257     0.97300
O1012       O  0.76148343  0.69741944  0.93115099    -0.83300
O1013       O  0.74568681  0.73862043  0.88037134    -0.85900
C1014       C  0.76114066  0.76511737  0.87873413     1.01800
O1015       O  0.79838101  0.76836704  0.87906967    -0.78700
O1016       O  0.86903027  0.75377436  0.90874892    -0.78900
C1017       C  0.86754328  0.74259910  0.93769092     1.01700
O1018       O  0.90458175  0.69212478  0.89180199    -0.86200
O1019       O  0.84522199  0.64594907  0.88107099    -0.83300
C1020       C  0.81044932  0.63444063  0.87877981     0.97300
O1021       O  0.77981483  0.65087707  0.88367460    -0.83300
O1022       O  0.77008364  0.69422485  0.83573068    -0.85900
C1023       C  0.78561256  0.71287036  0.81565504     1.01700
O1024       O  0.81346220  0.73147595  0.82382160    -0.78700
O1025       O  0.88926887  0.71847905  0.84867617    -0.78900
C1026       C  0.91471795  0.70425950  0.86536366     1.01700
Cr1027     Cr  0.85196938  0.68172808  0.91087097     1.93700
Cr1028     Cr  0.76912351  0.69625342  0.88329277     1.93200
Cr1029     Cr  0.84120439  0.73967728  0.86685893     1.39100
O1030       O  0.82076391  0.70614493  0.88634716    -1.24000
O1031       O  0.63057412  0.53459073  0.09492687    -0.86200
O1032       O  0.70268514  0.51787762  0.12190442    -0.83300
C1033       C  0.73980646  0.52148214  0.12446341     0.97300
O1034       O  0.75468941  0.54818611  0.12531023    -0.83300
O1035       O  0.73867485  0.59106811  0.07540114    -0.85900
C1036       C  0.72153811  0.61185642  0.05898055     1.01800
O1037       O  0.69017076  0.62420356  0.06910431    -0.78700
O1038       O  0.63925645  0.57602741  0.06366745    -0.78900
C1039       C  0.63073671  0.54779862  0.06691417     1.01700
O1040       O  0.61246525  0.56623376  0.15764523    -0.86200
O1041       O  0.68937329  0.55139445  0.18009114    -0.83300
C1042       C  0.71655007  0.57005371  0.18966280     0.97300
O1043       O  0.73004702  0.59106807  0.17117856    -0.83300
O1044       O  0.72132412  0.63608326  0.12416648    -0.85900
C1045       C  0.69102595  0.65246751  0.13031115     1.01700
O1046       O  0.65635487  0.64082542  0.12901604    -0.78700
O1047       O  0.59628956  0.59620747  0.11733116    -0.78900
C1048       C  0.58679517  0.58216073  0.14286649     1.01700
Cr1049     Cr  0.65996663  0.54596025  0.13711340     1.93700
Cr1050     Cr  0.73137127  0.59063720  0.12338624     1.93200
Cr1051     Cr  0.64823181  0.60677034  0.09741988     1.39100
O1052       O  0.67979956  0.58077202  0.11981951    -1.24000
O1053       O  0.12597739  0.74753312  0.91200500    -0.86200
O1054       O  0.20046006  0.76288119  0.89001762    -0.83300
C1055       C  0.23671706  0.76010706  0.88281482     0.97300
O1056       O  0.25088072  0.73374616  0.87682833    -0.83300
O1057       O  0.23885295  0.69191761  0.92861928    -0.85900
C1058       C  0.22255456  0.67187307  0.94674751     1.01800
O1059       O  0.19008931  0.65956839  0.93853371    -0.78700
O1060       O  0.14134250  0.70901959  0.94493889    -0.78900
C1061       C  0.13042584  0.73657040  0.94064454     1.01700
O1062       O  0.11180846  0.71575504  0.84976267    -0.86200
O1063       O  0.19005448  0.73294814  0.82886613    -0.83300
C1064       C  0.21328102  0.71222781  0.81760945     0.97300
O1065       O  0.22058215  0.68846296  0.83427774    -0.83300
O1066       O  0.21658199  0.64527369  0.88283475    -0.85900
C1067       C  0.18530489  0.62925748  0.87847097     1.01700
O1068       O  0.15112369  0.64140365  0.88143928    -0.78700
O1069       O  0.09431663  0.68886283  0.89253682    -0.78900
C1070       C  0.08536079  0.70152042  0.86594014     1.01700
Cr1071     Cr  0.15810961  0.73660566  0.87121034     1.93700
Cr1072     Cr  0.22758216  0.69081347  0.88142264     1.93200
Cr1073     Cr  0.14631376  0.67683398  0.91198651     1.39100
O1074       O  0.17712410  0.70149631  0.88771204    -1.24000
O1075       O  0.38543444  0.56473418  0.07799736    -0.86200
O1076       O  0.32250747  0.59893021  0.05877231    -0.83300
C1077       C  0.28749076  0.60885542  0.05792819     0.97300
O1078       O  0.26626979  0.60811158  0.08323719    -0.83300
O1079       O  0.25009654  0.54814643  0.11034791    -0.85900
C1080       C  0.25692303  0.52360401  0.12652084     1.01800
O1081       O  0.28945177  0.52119837  0.14144729    -0.78700
O1082       O  0.34855937  0.52570793  0.09452623    -0.78900
C1083       C  0.36922365  0.53871506  0.07235561     1.01700
O1084       O  0.39591610  0.60603555  0.13336754    -0.86200
O1085       O  0.33169966  0.64282543  0.10868594    -0.83300
C1086       C  0.30452033  0.64993330  0.12878498     0.97300
O1087       O  0.28799362  0.62892011  0.14546867    -0.83300
O1088       O  0.26917766  0.57198957  0.17138407    -0.85900
C1089       C  0.29522277  0.56785336  0.19286954     1.01700
O1090       O  0.33075737  0.56066121  0.18441107    -0.78700
O1091       O  0.39832656  0.55660983  0.14136149    -0.78900
C1092       C  0.41513302  0.58266860  0.14310775     1.01700
Cr1093     Cr  0.35648195  0.60134978  0.09722107     1.93700
Cr1094     Cr  0.27260611  0.58845736  0.12676256     1.93200
Cr1095     Cr  0.34099704  0.54370097  0.13914657     1.39100
O1096       O  0.32318221  0.57807502  0.12103275    -1.24000
O1097       O  0.36123504  0.95637932  0.94168122    -0.86200
O1098       O  0.31094384  0.90846283  0.93689892    -0.83300
C1099       C  0.27926218  0.92094345  0.94655451     0.97300
O1100       O  0.26153065  0.94078527  0.92907583    -0.83300
O1101       O  0.24455674  0.98207090  0.87649129    -0.85900
C1102       C  0.25822456  0.00896834  0.88043618     1.01800
O1103       O  0.29452230  0.01261401  0.88666770    -0.78700
O1104       O  0.36734334  0.99860727  0.91143857    -0.78900
C1105       C  0.36746974  0.98496334  0.93916902     1.01700
O1106       O  0.40424221  0.93723095  0.88679039    -0.86200
O1107       O  0.34522634  0.89070519  0.87687133    -0.83300
C1108       C  0.31079429  0.87850763  0.87600126     0.97300
O1109       O  0.28028480  0.89444289  0.88248032    -0.83300
O1110       O  0.27463333  0.93747826  0.83380639    -0.85900
C1111       C  0.28278646  0.96056965  0.81618464     1.01700
O1112       O  0.30739238  0.98112084  0.82646638    -0.78700
O1113       O  0.38733422  0.96940757  0.84826265    -0.78900
C1114       C  0.41360636  0.95345891  0.86247228     1.01700
Cr1115     Cr  0.35291912  0.92552851  0.90794066     1.93700
Cr1116     Cr  0.26978259  0.93983363  0.88122469     1.93200
Cr1117     Cr  0.33822568  0.98686754  0.86935440     1.39100
O1118       O  0.32067116  0.95093988  0.88565864    -1.24000
O1119       O  0.12329073  0.78572428  0.09321396    -0.86200
O1120       O  0.19685244  0.77323198  0.11276933    -0.83300
C1121       C  0.23190255  0.77335968  0.12266583     0.97300
O1122       O  0.24694540  0.79907058  0.13054664    -0.83300
O1123       O  0.23336118  0.84276616  0.07839881    -0.85900
C1124       C  0.21595700  0.86267858  0.06076203     1.01800
O1125       O  0.18369860  0.87476758  0.06974527    -0.78700
O1126       O  0.13384245  0.82711039  0.06306997    -0.78900
C1127       C  0.12589969  0.79884019  0.06538530     1.01700
O1128       O  0.10684424  0.81295525  0.15763370    -0.86200
O1129       O  0.18606106  0.79889898  0.17773965    -0.83300
C1130       C  0.20838831  0.82017302  0.18972047     0.97300
O1131       O  0.21685913  0.84398665  0.17325468    -0.83300
O1132       O  0.21279736  0.88853211  0.12537970    -0.85900
C1133       C  0.18161185  0.90445142  0.13016514     1.01700
O1134       O  0.14743708  0.89187555  0.12892137    -0.78700
O1135       O  0.08937753  0.84475671  0.11869659    -0.78900
C1136       C  0.08047433  0.82886278  0.14353391     1.01700
Cr1137     Cr  0.15439730  0.79586100  0.13465474     1.93700
Cr1138     Cr  0.22326365  0.84262659  0.12603537     1.93200
Cr1139     Cr  0.14072284  0.85743850  0.09757490     1.39100
O1140       O  0.17226559  0.83215601  0.12021616    -1.24000
O1141       O  0.62823459  0.00411126  0.91243979    -0.86200
O1142       O  0.70050969  0.01939817  0.88877200    -0.83300
C1143       C  0.73726981  0.01666877  0.88435056     0.97300
O1144       O  0.75241648  0.99027262  0.88179684    -0.83300
O1145       O  0.73461304  0.94952542  0.93336266    -0.85900
C1146       C  0.71757575  0.92917910  0.95055649     1.01800
O1147       O  0.68768947  0.91504547  0.93988919    -0.78700
O1148       O  0.63778299  0.96346338  0.94423035    -0.78900
C1149       C  0.63063153  0.99189413  0.94073975     1.01700
O1150       O  0.61114449  0.97246014  0.84999006    -0.86200
O1151       O  0.68973954  0.98613143  0.82857537    -0.83300
C1152       C  0.71540965  0.96601875  0.81955634     0.97300
O1153       O  0.72803785  0.94540505  0.83859947    -0.83300
O1154       O  0.72010221  0.90195899  0.88653866    -0.85900
C1155       C  0.69029599  0.88538422  0.87915805     1.01700
O1156       O  0.65527298  0.89660645  0.88021442    -0.78700
O1157       O  0.59430651  0.94191952  0.89004367    -0.78900
C1158       C  0.58505915  0.95656769  0.86472958     1.01700
Cr1159     Cr  0.65867467  0.99215615  0.87114961     1.93700
Cr1160     Cr  0.72916069  0.94770843  0.88573750     1.93200
Cr1161     Cr  0.64596475  0.93156543  0.91105920     1.39100
O1162       O  0.67759736  0.95720588  0.88840319    -1.24000
O1163       O  0.85660400  0.83101562  0.06306078    -0.86200
O1164       O  0.80810551  0.87969087  0.07466193    -0.83300
C1165       C  0.77662945  0.86839060  0.06342846     0.97300
O1166       O  0.75908919  0.84632836  0.07804646    -0.83300
O1167       O  0.74423092  0.79882076  0.12553371    -0.85900
C1168       C  0.75926802  0.77306525  0.11843338     1.01800
O1169       O  0.79500289  0.77183581  0.10967509    -0.78700
O1170       O  0.86913914  0.78837314  0.09061514    -0.78900
C1171       C  0.86550231  0.80269638  0.06361643     1.01700
O1172       O  0.90166090  0.84549487  0.11923640    -0.86200
O1173       O  0.84286929  0.89124793  0.13462127    -0.83300
C1174       C  0.80826217  0.90309568  0.13673672     0.97300
O1175       O  0.77774502  0.88723870  0.12954129    -0.83300
O1176       O  0.77164364  0.83954320  0.17256391    -0.85900
C1177       C  0.78134753  0.81508076  0.18712527     1.01700
O1178       O  0.80518833  0.79577571  0.17425093    -0.78700
O1179       O  0.88356405  0.81233503  0.15659829    -0.78900
C1180       C  0.91018119  0.82890354  0.14346038     1.01700
Cr1181     Cr  0.85026875  0.85941023  0.09998086     1.93700
Cr1182     Cr  0.76744868  0.84201098  0.12548769     1.93200
Cr1183     Cr  0.83704145  0.79535889  0.13209648     1.39100
O1184       O  0.81854778  0.83219642  0.11990228    -1.24000
C1185       C  0.70720144  0.91028965  0.00688138    -0.02700
C1186       C  0.73379602  0.91877397  0.98159607     0.07000
C1187       C  0.77443504  0.91129436  0.98368965    -0.02800
C1188       C  0.78788354  0.89330730  0.00972817    -0.02800
C1189       C  0.76081355  0.88323232  0.03418773     0.07100
C1190       C  0.72056053  0.89218577  0.03295826    -0.03000
Br1191     Br  0.68380230  0.88112037  0.06748073    -0.01600
Br1192     Br  0.65258011  0.92442282  0.00676828    -0.01600
Br1193     Br  0.84364848  0.88181611  0.01040114    -0.01600
Br1194     Br  0.81190013  0.92411005  0.95026342    -0.01600
C1195       C  0.01622559  0.80003927  0.15662719    -0.02700
C1196       C  0.03771597  0.82827045  0.15418596     0.07000
C1197       C  0.01639774  0.85631042  0.15590572    -0.02800
C1198       C  0.97431042  0.85627988  0.15623869    -0.02800
C1199       C  0.95273919  0.82823607  0.15429462     0.07100
C1200       C  0.97388989  0.80001754  0.15646413    -0.03000
Br1201     Br  0.94529395  0.76113737  0.15582962    -0.01600
Br1202     Br  0.04429921  0.76113353  0.15702234    -0.01600
Br1203     Br  0.94596347  0.89497075  0.15871927    -0.01600
Br1204     Br  0.04505151  0.89509465  0.15689982    -0.01600
C1205       C  0.52012529  0.98381708  0.85206635    -0.02700
C1206       C  0.54218005  0.95603265  0.85434276     0.07000
C1207       C  0.52135873  0.92758899  0.85272955    -0.02800
C1208       C  0.47917039  0.92687955  0.85175542    -0.02800
C1209       C  0.45688210  0.95457365  0.85278584     0.07100
C1210       C  0.47778808  0.98310704  0.85124750    -0.03000
Br1211     Br  0.44875174  0.02156000  0.85158483    -0.01600
Br1212     Br  0.54753126  0.02313038  0.85405453    -0.01600
Br1213     Br  0.45166666  0.88763385  0.84964787    -0.01600
Br1214     Br  0.55077446  0.88927820  0.85293468    -0.01600
C1215       C  0.28419576  0.90799298  0.00547225    -0.02700
C1216       C  0.26159276  0.90867156  0.97656490     0.07000
C1217       C  0.22550812  0.89216288  0.97476538    -0.02800
C1218       C  0.21163941  0.87553937  0.00189098    -0.02800
C1219       C  0.23403285  0.87501560  0.03090026     0.07100
C1220       C  0.27014342  0.89155452  0.03272806    -0.03000
Br1221     Br  0.29897651  0.89362433  0.07324887    -0.01600
Br1222     Br  0.33437626  0.92964761  0.00829193    -0.01600
Br1223     Br  0.16207184  0.85320505  0.99851778    -0.01600
Br1224     Br  0.19647093  0.89026258  0.93431015    -0.01600
C1225       C  0.33625833  0.52641657  0.01908887    -0.02700
C1226       C  0.37081499  0.52563875  0.03852240     0.07000
C1227       C  0.40623098  0.51402207  0.02459815    -0.02800
C1228       C  0.40682947  0.50371884  0.99178292    -0.02800
C1229       C  0.37042042  0.00204856  0.97057763     0.07100
C1230       C  0.33753666  0.51827042  0.98597870    -0.03000
Br1231     Br  0.28911969  0.52043295  0.96124073    -0.01600
Br1232     Br  0.28561767  0.53579617  0.03836376    -0.01600
Br1233     Br  0.45369262  0.98580842  0.96997415    -0.01600
Br1234     Br  0.45226624  0.50890194  0.05181908    -0.01600
C1235       C  0.22470741  0.97960002  0.15938213    -0.02700
C1236       C  0.22810992  0.49698333  0.13023227     0.07000
C1237       C  0.20312404  0.48702282  0.10474312    -0.02800
C1238       C  0.17977158  0.95839684  0.10688313    -0.02800
C1239       C  0.18686478  0.93841372  0.13354716     0.07100
C1240       C  0.20733953  0.94988427  0.16053095    -0.03000
Br1241     Br  0.21268637  0.92404805  0.19873161    -0.01600
Br1242     Br  0.24715181  0.99587246  0.19878960    -0.01600
Br1243     Br  0.14691641  0.94430307  0.07159316    -0.01600
Br1244     Br  0.19233744  0.51358738  0.06814222    -0.01600
C1245       C  0.29452827  0.73887714  0.12360955    -0.02700
C1246       C  0.25266808  0.74265111  0.12651746     0.07000
C1247       C  0.22907486  0.71585934  0.13268914    -0.02800
C1248       C  0.24591502  0.68617294  0.13135917    -0.02800
C1249       C  0.28779738  0.68222053  0.12984457     0.07100
C1250       C  0.31201318  0.70905456  0.12703845    -0.03000
Br1251     Br  0.36914096  0.70527280  0.12925089    -0.01600
Br1252     Br  0.32811560  0.77380904  0.11299066    -0.01600
Br1253     Br  0.20966771  0.65149756  0.12734611    -0.01600
Br1254     Br  0.17332560  0.71867223  0.14535671    -0.01600
C1255       C  0.22036235  0.58788331  0.84939224    -0.02700
C1256       C  0.19144852  0.59578909  0.87259531     0.07000
C1257       C  0.17939305  0.57330787  0.89578578    -0.02800
C1258       C  0.19925021  0.54441933  0.89755940    -0.02800
C1259       C  0.23279867  0.53887745  0.87761808     0.07100
C1260       C  0.24237427  0.56050806  0.85285154    -0.03000
Br1261     Br  0.28705048  0.55411694  0.82426106    -0.01600
Br1262     Br  0.23084136  0.61576261  0.81346850    -0.01600
Br1263     Br  0.18252552  0.51358247  0.92882854    -0.01600
Br1264     Br  0.13824416  0.58299031  0.92679361    -0.01600
C1265       C  0.31564771  0.82311578  0.89444905    -0.02700
C1266       C  0.30371264  0.84503154  0.87081344     0.07000
C1267       C  0.27374141  0.83688109  0.84863210    -0.02800
C1268       C  0.25119501  0.80974001  0.85330686    -0.02800
C1269       C  0.26155332  0.78837890  0.87800757     0.07100
C1270       C  0.29546568  0.79434956  0.89725568    -0.03000
Br1271     Br  0.31208097  0.76436122  0.92924138    -0.01600
Br1272     Br  0.35702963  0.83359759  0.92483220    -0.01600
Br1273     Br  0.20474332  0.80331889  0.82663971    -0.01600
Br1274     Br  0.26307350  0.86380291  0.81214482    -0.01600
C1275       C  0.16252751  0.75949305  0.98894699    -0.02700
C1276       C  0.12764995  0.75600752  0.97038167     0.07000
C1277       C  0.09139003  0.76754516  0.98281374    -0.02800
C1278       C  0.08990436  0.78036780  0.01456423    -0.02800
C1279       C  0.12451619  0.78127180  0.03421854     0.07100
C1280       C  0.16108347  0.77201041  0.02026079    -0.03000
Br1281     Br  0.21081507  0.77922131  0.04210678    -0.01600
Br1282     Br  0.21356835  0.74902066  0.97040650    -0.01600
Br1283     Br  0.04133406  0.79837689  0.03048853    -0.01600
Br1284     Br  0.04462310  0.76671768  0.95589107    -0.01600
C1285       C  0.23046976  0.63005233  0.02586311    -0.02700
C1286       C  0.27171485  0.62356516  0.02792945     0.07000
C1287       C  0.29768385  0.63473083  0.00295129    -0.02800
C1288       C  0.28209942  0.65173665  0.97663035    -0.02800
C1289       C  0.24149522  0.65997804  0.97643150     0.07100
C1290       C  0.21651471  0.65064713  0.00229488    -0.03000
Br1291     Br  0.16299793  0.66681922  0.00651626    -0.01600
Br1292     Br  0.19112461  0.60824072  0.05202943    -0.01600
Br1293     Br  0.31629272  0.66211403  0.94017839    -0.01600
Br1294     Br  0.35461620  0.62706246  0.00304972    -0.01600
C1295       C  0.73239215  0.69401761  0.15328341    -0.02700
C1296       C  0.69857134  0.68593558  0.13506840     0.07000
C1297       C  0.68122707  0.70833866  0.11431051    -0.02800
C1298       C  0.69981407  0.73758280  0.10991821    -0.02800
C1299       C  0.73695190  0.74374783  0.12465910     0.07100
C1300       C  0.75280790  0.72177564  0.14679005    -0.03000
Br1301     Br  0.80377017  0.72785958  0.16747132    -0.01600
Br1302     Br  0.75177197  0.66590690  0.18645523    -0.01600
Br1303     Br  0.67644132  0.76796028  0.08134161    -0.01600
Br1304     Br  0.63420102  0.69821964  0.08968659    -0.01600
C1305       C  0.79809845  0.48762573  0.10775854    -0.02700
C1306       C  0.76578556  0.49382241  0.12882398     0.07000
C1307       C  0.74694981  0.97251678  0.15555059    -0.02800
C1308       C  0.76626002  0.94409090  0.16073913    -0.02800
C1309       C  0.80083276  0.93649224  0.14289497     0.07100
C1310       C  0.81907508  0.95965265  0.12334160    -0.03000
Br1311     Br  0.86614588  0.95015917  0.09840612    -0.01600
Br1312     Br  0.81246972  0.51686308  0.07414861    -0.01600
Br1313     Br  0.74358999  0.91432865  0.19102159    -0.01600
Br1314     Br  0.69670779  0.97968950  0.17733680    -0.01600
C1315       C  0.66150580  0.51913852  0.02153236    -0.02700
C1316       C  0.62631079  0.53014496  0.03602308     0.07000
C1317       C  0.59158390  0.53223762  0.01655441    -0.02800
C1318       C  0.59472967  0.02223932  0.98534511    -0.02800
C1319       C  0.62995793  0.01060665  0.97126753     0.07100
C1320       C  0.66212988  0.51031522  0.98879644    -0.03000
Br1321     Br  0.71272241  0.50385657  0.96809398    -0.01600
Br1322     Br  0.71056525  0.51882520  0.04557321    -0.01600
Br1323     Br  0.54699348  0.02340669  0.95983971    -0.01600
Br1324     Br  0.54472571  0.55136688  0.03424212    -0.01600
C1325       C  0.52329389  0.61179286  0.15175267    -0.02700
C1326       C  0.54410066  0.58347733  0.15334344     0.07000
C1327       C  0.52232079  0.55609627  0.15934649    -0.02800
C1328       C  0.48015538  0.55664456  0.16055219    -0.02800
C1329       C  0.45878039  0.58428505  0.15281511     0.07100
C1330       C  0.48105569  0.61232582  0.15103416    -0.03000
Br1331     Br  0.45512628  0.65202567  0.14794505    -0.01600
Br1332     Br  0.55323287  0.65011701  0.15057542    -0.01600
Br1333     Br  0.45324838  0.51882456  0.17376584    -0.01600
Br1334     Br  0.54981049  0.51695337  0.16263754    -0.01600
C1335       C  0.84017822  0.78055082  0.97704535    -0.02700
C1336       C  0.87258064  0.76227598  0.96715887     0.07000
C1337       C  0.90314331  0.75616422  0.99003989    -0.02800
C1338       C  0.90166954  0.76904841  0.02174105    -0.02800
C1339       C  0.86836048  0.78661208  0.03151855     0.07100
C1340       C  0.83679718  0.79047105  0.00928257    -0.03000
Br1341     Br  0.78521924  0.80357388  0.02419477    -0.01600
Br1342     Br  0.79812396  0.79073779  0.94743978    -0.01600
Br1343     Br  0.94406705  0.76152858  0.05209674    -0.01600
Br1344     Br  0.94657393  0.72964831  0.97790048    -0.01600
C1345       C  0.70278873  0.79947621  0.89486004    -0.02700
C1346       C  0.73609226  0.79336713  0.87479883     0.07000
C1347       C  0.74731770  0.81550752  0.85106167    -0.02800
C1348       C  0.72994327  0.84503587  0.85077448    -0.02800
C1349       C  0.69872005  0.85223825  0.87251086     0.07100
C1350       C  0.68374737  0.82870051  0.89331060    -0.03000
Br1351     Br  0.63974521  0.83740654  0.92199878    -0.01600
Br1352     Br  0.68522349  0.76904038  0.92630440    -0.01600
Br1353     Br  0.75144851  0.87629044  0.82181525    -0.01600
Br1354     Br  0.78622490  0.80535618  0.81808112    -0.01600
C1355       C  0.79429532  0.55025941  0.89954678    -0.02700
C1356       C  0.76023386  0.54468105  0.88035604     0.07000
C1357       C  0.74975332  0.56641071  0.85599671    -0.02800
C1358       C  0.77252228  0.59342512  0.85148678    -0.02800
C1359       C  0.80278044  0.60110853  0.87360886     0.07100
C1360       C  0.81460507  0.57895884  0.89706005    -0.03000
Br1361     Br  0.85570648  0.58899571  0.92788633    -0.01600
Br1362     Br  0.81653412  0.01981225  0.92712520    -0.01600
Br1363     Br  0.76142752  0.62103298  0.81553136    -0.01600
Br1364     Br  0.70369263  0.56008725  0.82873673    -0.01600
C1365       C  0.97798752  0.67421399  0.85867231    -0.02700
C1366       C  0.95762190  0.70264005  0.85579816     0.07000
C1367       C  0.97995320  0.72999205  0.85020923    -0.02800
C1368       C  0.02217753  0.72915088  0.84974854    -0.02800
C1369       C  0.04251737  0.70112171  0.85604683     0.07100
C1370       C  0.02005192  0.67349243  0.85937212    -0.03000
Br1371     Br  0.04674015  0.63449523  0.86659861    -0.01600
Br1372     Br  0.94802119  0.63609584  0.86290577    -0.01600
Br1373     Br  0.05177766  0.76726763  0.84440704    -0.01600
Br1374     Br  0.95315925  0.76937958  0.84766129    -0.01600
C1375       C  0.77983575  0.66689828  0.00715950    -0.02700
C1376       C  0.75984652  0.66395125  0.97733857     0.07000
C1377       C  0.72954974  0.64170717  0.97367006    -0.02800
C1378       C  0.71851909  0.62299801  0.00010610    -0.02800
C1379       C  0.73912141  0.62539453  0.02976034     0.07100
C1380       C  0.76978852  0.64740129  0.03327604    -0.03000
Br1381     Br  0.79666133  0.65195995  0.07436599    -0.01600
Br1382     Br  0.82082885  0.69785004  0.01227215    -0.01600
Br1383     Br  0.67479549  0.59445274  0.99546596    -0.01600
Br1384     Br  0.70486579  0.63542301  0.93188501    -0.01600
C1385       C  0.70199359  0.80905926  0.25323564    -0.02700
C1386       C  0.72549756  0.80337782  0.28094722     0.07000
C1387       C  0.76741387  0.79797798  0.27668775    -0.02800
C1388       C  0.78532507  0.80069267  0.24587651    -0.02800
C1389       C  0.76214460  0.80851969  0.21887403     0.07100
C1390       C  0.72020047  0.81137008  0.22237748    -0.03000
Br1391     Br  0.68693030  0.81780928  0.18473200    -0.01600
Br1392     Br  0.64527229  0.81586841  0.25717963    -0.01600
Br1393     Br  0.84245330  0.79569623  0.24095537    -0.01600
Br1394     Br  0.80251764  0.78700444  0.31230695    -0.01600
C1395       C  0.79019993  0.97546744  0.75016282    -0.02700
C1396       C  0.77431848  0.95496557  0.72688001     0.07000
C1397       C  0.73873545  0.93832852  0.73511669    -0.02800
C1398       C  0.71739038  0.94482361  0.76376969    -0.02800
C1399       C  0.73267444  0.96578295  0.78632574     0.07100
C1400       C  0.76998460  0.98009748  0.77994733    -0.03000
Br1401     Br  0.79444279  0.00555822  0.81239059    -0.01600
Br1402     Br  0.83859816  0.99850404  0.74146638    -0.01600
Br1403     Br  0.66707478  0.92443124  0.77290246    -0.01600
Br1404     Br  0.71964042  0.90452473  0.70893347    -0.01600
C1405       C  0.78920301  0.87702441  0.51290261    -0.02700
C1406       C  0.76504967  0.89944178  0.52803205     0.07000
C1407       C  0.72541759  0.90355849  0.51790448    -0.02800
C1408       C  0.70924580  0.88471077  0.49368923    -0.02800
C1409       C  0.73314256  0.86197478  0.47874706     0.07100
C1410       C  0.77353063  0.85895434  0.48779959    -0.03000
Br1411     Br  0.80802512  0.83017541  0.46605872    -0.01600
Br1412     Br  0.84321043  0.86929524  0.52741721    -0.01600
Br1413     Br  0.65516114  0.89239801  0.47960639    -0.01600
Br1414     Br  0.69382720  0.93637371  0.53586468    -0.01600
C1415       C  0.20571084  0.81346622  0.25098909    -0.02700
C1416       C  0.22819176  0.81699089  0.22230349     0.07000
C1417       C  0.27031838  0.82050902  0.22494579    -0.02800
C1418       C  0.28935516  0.82057663  0.25562780    -0.02800
C1419       C  0.26665880  0.81866611  0.28433763     0.07100
C1420       C  0.22457029  0.81497947  0.28171343    -0.03000
Br1421     Br  0.19183466  0.81229370  0.32019327    -0.01600
Br1422     Br  0.14857456  0.80862430  0.24817388    -0.01600
Br1423     Br  0.34651434  0.82523318  0.25845333    -0.01600
Br1424     Br  0.30277620  0.82587806  0.18655404    -0.01600
C1425       C  0.48187585  0.85994995  0.36145331    -0.02700
C1426       C  0.45817292  0.83302424  0.35904583     0.07000
C1427       C  0.47714241  0.80477892  0.35194635    -0.02800
C1428       C  0.51929865  0.80303702  0.34988742    -0.02800
C1429       C  0.54365910  0.82916410  0.35745056     0.07100
C1430       C  0.52409674  0.85818467  0.36055236    -0.03000
Br1431     Br  0.55385765  0.89641843  0.36195736    -0.01600
Br1432     Br  0.45602922  0.89964257  0.36559219    -0.01600
Br1433     Br  0.54208678  0.76453295  0.33517890    -0.01600
Br1434     Br  0.44570991  0.76740688  0.34802000    -0.01600
C1435       C  0.27535364  0.98256538  0.75864144    -0.02700
C1436       C  0.26004820  0.96437456  0.78451038     0.07000
C1437       C  0.22092691  0.95129049  0.78057116    -0.02800
C1438       C  0.19996299  0.95420976  0.75076387    -0.02800
C1439       C  0.21512106  0.97291471  0.72553824     0.07100
C1440       C  0.25194090  0.98846771  0.73074506    -0.03000
Br1441     Br  0.27004699  0.01945388  0.70017181    -0.01600
Br1442     Br  0.32986994  0.99735220  0.75922581    -0.01600
Br1443     Br  0.15146842  0.93103487  0.74366299    -0.01600
Br1444     Br  0.19346933  0.93025977  0.81576367    -0.01600
C1445       C  0.97179959  0.94844353  0.67000647    -0.02700
C1446       C  0.95132874  0.93448627  0.64397532     0.07000
C1447       C  0.97356904  0.92204586  0.61802439    -0.02800
C1448       C  0.01514094  0.92656047  0.61636983    -0.02800
C1449       C  0.03570468  0.94142592  0.64189570     0.07100
C1450       C  0.01387897  0.95149007  0.66921121    -0.03000
Br1451     Br  0.04155100  0.96925034  0.70559536    -0.01600
Br1452     Br  0.94204350  0.96271709  0.70707546    -0.01600
Br1453     Br  0.04252437  0.91584057  0.57661775    -0.01600
Br1454     Br  0.94723000  0.90057840  0.58297783    -0.01600
C1455       C  0.26641278  0.91166333  0.52292230    -0.02700
C1456       C  0.22511920  0.91796041  0.52474036     0.07000
C1457       C  0.19950318  0.90560373  0.50044212    -0.02800
C1458       C  0.21548895  0.88776076  0.47496398    -0.02800
C1459       C  0.25614054  0.87946065  0.47522740     0.07100
C1460       C  0.28091221  0.89043351  0.50031282    -0.03000
Br1461     Br  0.33495011  0.87551760  0.50495480    -0.01600
Br1462     Br  0.30475941  0.93412383  0.54886432    -0.01600
Br1463     Br  0.18194051  0.87649894  0.43878311    -0.01600
Br1464     Br  0.14233920  0.91206408  0.50098069    -0.01600
C1465       C  0.22292349  0.58201970  0.26274171    -0.02700
C1466       C  0.24022140  0.56576496  0.28841046     0.07000
C1467       C  0.27817251  0.55203945  0.28390981    -0.02800
C1468       C  0.29716650  0.55267544  0.25313037    -0.02800
C1469       C  0.28018072  0.56976634  0.22727981     0.07100
C1470       C  0.24385977  0.58602861  0.23343003    -0.03000
Br1471     Br  0.22321124  0.61682974  0.20387135    -0.01600
Br1472     Br  0.17027476  0.59942187  0.26838111    -0.01600
Br1473     Br  0.34577245  0.52957616  0.24699433    -0.01600
Br1474     Br  0.30509831  0.53298066  0.31994786    -0.01600
C1475       C  0.16505920  0.52359602  0.48892965    -0.02700
C1476       C  0.13013606  0.53461411  0.47403835     0.07000
C1477       C  0.09467311  0.53567452  0.49251668    -0.02800
C1478       C  0.09344078  0.52295320  0.52439357    -0.02800
C1479       C  0.12402684  0.01368815  0.53766865     0.07100
C1480       C  0.16138393  0.01757053  0.52205845    -0.03000
Br1481     Br  0.21033063  0.01021764  0.54435805    -0.01600
Br1482     Br  0.21591174  0.52836193  0.46749218    -0.01600
Br1483     Br  0.04677327  0.52744340  0.55092938    -0.01600
Br1484     Br  0.04973218  0.55787554  0.47539284    -0.01600
C1485       C  0.29897090  0.48802527  0.40109778    -0.02700
C1486       C  0.26357293  0.49462544  0.38398710     0.07000
C1487       C  0.25282587  0.97325930  0.35759770    -0.02800
C1488       C  0.27478033  0.94657001  0.35090694    -0.02800
C1489       C  0.30640177  0.93784244  0.37120413     0.07100
C1490       C  0.32061691  0.95877907  0.39469393    -0.03000
Br1491     Br  0.36525252  0.94781537  0.42183100    -0.01600
Br1492     Br  0.31856471  0.51665157  0.43302391    -0.01600
Br1493     Br  0.26035489  0.92038765  0.31487269    -0.01600
Br1494     Br  0.20585194  0.98125854  0.33194085    -0.01600
C1495       C  0.20437130  0.73842683  0.39535055    -0.02700
C1496       C  0.23843390  0.74568288  0.37657384     0.07000
C1497       C  0.25036941  0.72520541  0.35174391    -0.02800
C1498       C  0.23079051  0.69673323  0.34780107    -0.02800
C1499       C  0.20057116  0.68759466  0.36955876     0.07100
C1500       C  0.18619685  0.70900034  0.39256788    -0.03000
Br1501     Br  0.14508438  0.69687674  0.42299732    -0.01600
Br1502     Br  0.18443700  0.76770420  0.42646129    -0.01600
Br1503     Br  0.24690513  0.66894201  0.31366380    -0.01600
Br1504     Br  0.29420444  0.73521538  0.32307536    -0.01600
C1505       C  0.23855781  0.73528396  0.72980732    -0.02700
C1506       C  0.27774136  0.72321248  0.72581456     0.07000
C1507       C  0.29665001  0.71003784  0.75304760    -0.02800
C1508       C  0.27605897  0.70739763  0.78307606    -0.02800
C1509       C  0.23537421  0.71667527  0.78603536     0.07100
C1510       C  0.21719963  0.73113754  0.75915288    -0.03000
Br1511     Br  0.16194227  0.74366400  0.76136454    -0.01600
Br1512     Br  0.21375790  0.75905604  0.69550682    -0.01600
Br1513     Br  0.30530622  0.69222001  0.82030530    -0.01600
Br1514     Br  0.35032601  0.69447703  0.74910051    -0.01600
C1515       C  0.24587525  0.60292728  0.61753356    -0.02700
C1516       C  0.28757777  0.60633016  0.62098297     0.07000
C1517       C  0.31181662  0.57962830  0.61834496    -0.02800
C1518       C  0.29434438  0.54978957  0.61549762    -0.02800
C1519       C  0.25241644  0.54637548  0.61487331     0.07100
C1520       C  0.22867776  0.57346738  0.61404846    -0.03000
Br1521     Br  0.17190808  0.57134523  0.60659014    -0.01600
Br1522     Br  0.21110900  0.63867080  0.61564934    -0.01600
Br1523     Br  0.32480464  0.01403661  0.62065912    -0.01600
Br1524     Br  0.36896658  0.58339903  0.61983872    -0.01600
C1525       C  0.18634331  0.83056839  0.61747214    -0.02700
C1526       C  0.20986937  0.85730201  0.62332503     0.07000
C1527       C  0.25180171  0.85430800  0.62432556    -0.02800
C1528       C  0.26967384  0.82526763  0.62028056    -0.02800
C1529       C  0.24623229  0.79795767  0.61745226     0.07100
C1530       C  0.20439368  0.80101655  0.61480478    -0.03000
Br1531     Br  0.17150085  0.76499372  0.60791781    -0.01600
Br1532     Br  0.12907799  0.83399250  0.61457109    -0.01600
Br1533     Br  0.32719303  0.82425085  0.61637418    -0.01600
Br1534     Br  0.28633888  0.89010295  0.62972202    -0.01600
C1535       C  0.40903071  0.77062585  0.52248753    -0.02700
C1536       C  0.37355748  0.76246577  0.53915810     0.07000
C1537       C  0.33710002  0.76483574  0.52203738    -0.02800
C1538       C  0.33639174  0.77263928  0.48882168    -0.02800
C1539       C  0.37140809  0.78186873  0.47255917     0.07100
C1540       C  0.40766903  0.78171555  0.48989480    -0.03000
Br1541     Br  0.45429310  0.79949921  0.46976222    -0.01600
Br1542     Br  0.45865092  0.76979373  0.54552177    -0.01600
Br1543     Br  0.28629513  0.77260089  0.46578413    -0.01600
Br1544     Br  0.28682998  0.76014750  0.54357212    -0.01600
C1545       C  0.23454825  0.66746222  0.52052080    -0.02700
C1546       C  0.27619197  0.67031088  0.52435201     0.07000
C1547       C  0.30196126  0.65510481  0.50218529    -0.02800
C1548       C  0.28583411  0.63643194  0.47755572    -0.02800
C1549       C  0.24422401  0.63147355  0.47601936     0.07100
C1550       C  0.21894626  0.64614567  0.49860682    -0.03000
Br1551     Br  0.16275114  0.63585302  0.50150669    -0.01600
Br1552     Br  0.19805618  0.69462274  0.54297798    -0.01600
Br1553     Br  0.32120931  0.61861038  0.44560817    -0.01600
Br1554     Br  0.35944252  0.65923100  0.50442597    -0.01600
C1555       C  0.73083055  0.56509960  0.28180655    -0.02700
C1556       C  0.77311334  0.56382343  0.28463871     0.07000
C1557       C  0.79615873  0.56262642  0.25608305    -0.02800
C1558       C  0.77751128  0.56382744  0.22529039    -0.02800
C1559       C  0.73538009  0.56654489  0.22249047     0.07100
C1560       C  0.71224726  0.56667003  0.25102250    -0.03000
Br1561     Br  0.65504850  0.57073959  0.24794506    -0.01600
Br1562     Br  0.69742542  0.56368050  0.32006011    -0.01600
Br1563     Br  0.81038314  0.56079050  0.18695396    -0.01600
Br1564     Br  0.85355784  0.56095643  0.25911825    -0.01600
C1565       C  0.82087353  0.69917694  0.39994417    -0.02700
C1566       C  0.81335124  0.67843949  0.37448276     0.07000
C1567       C  0.78988357  0.68794090  0.34826989    -0.02800
C1568       C  0.76868155  0.71590417  0.34961215    -0.02800
C1569       C  0.77298546  0.73610040  0.37677927     0.07100
C1570       C  0.80207853  0.72842042  0.40044580    -0.03000
Br1571     Br  0.81583174  0.75636489  0.43460530    -0.01600
Br1572     Br  0.85380713  0.68613471  0.43588654    -0.01600
Br1573     Br  0.73321920  0.72455273  0.31358978    -0.01600
Br1574     Br  0.78569049  0.66116072  0.31102656    -0.01600
C1575       C  0.77529001  0.95435186  0.38577008    -0.02700
C1576       C  0.74436645  0.48505812  0.37733162     0.07000
C1577       C  0.71098897  0.47794019  0.39684597    -0.02800
C1578       C  0.69195544  0.94800887  0.38896551    -0.02800
C1579       C  0.71579543  0.92148856  0.38376555     0.07100
C1580       C  0.75775116  0.92492076  0.38325890    -0.03000
Br1581     Br  0.79271196  0.88925081  0.38086842    -0.01600
Br1582     Br  0.83304497  0.95656791  0.38509457    -0.01600
Br1583     Br  0.63479531  0.94420837  0.39054916    -0.01600
Br1584     Br  0.69061246  0.50849854  0.42644756    -0.01600
C1585       C  0.83588724  0.51251477  0.48626558    -0.02700
C1586       C  0.87277272  0.51746468  0.47053400     0.07000
C1587       C  0.90804857  0.51129953  0.48788417    -0.02800
C1588       C  0.90617332  0.50098305  0.52071431    -0.02800
C1589       C  0.86865906  0.99716134  0.53738313     0.07100
C1590       C  0.83399496  0.50403801  0.51922220    -0.03000
Br1591     Br  0.78328364  0.00640513  0.54294282    -0.01600
Br1592     Br  0.78713296  0.51732711  0.46256580    -0.01600
Br1593     Br  0.95428128  0.49102664  0.54369201    -0.01600
Br1594     Br  0.95844633  0.51740207  0.46652090    -0.01600
C1595       C  0.98341120  0.60543263  0.35561057    -0.02700
C1596       C  0.96379794  0.57644382  0.35624882     0.07000
C1597       C  0.98684020  0.54926131  0.35372782    -0.02800
C1598       C  0.02906537  0.55099370  0.35338251    -0.02800
C1599       C  0.04866228  0.57998917  0.35561342     0.07100
C1600       C  0.02547940  0.60717872  0.35501088    -0.03000
Br1601     Br  0.05162950  0.64704844  0.35423397    -0.01600
Br1602     Br  0.95253768  0.64298294  0.35714690    -0.01600
Br1603     Br  0.05963691  0.51324136  0.35362436    -0.01600
Br1604     Br  0.96077071  0.50935536  0.35498316    -0.01600
C1605       C  0.77223938  0.70157014  0.72459099    -0.02700
C1606       C  0.73075228  0.70735272  0.72076214     0.07000
C1607       C  0.70863685  0.71744995  0.74774827    -0.02800
C1608       C  0.72709685  0.72017231  0.77837987    -0.02800
C1609       C  0.76818598  0.71345412  0.78239552     0.07100
C1610       C  0.79072572  0.70463321  0.75522208    -0.03000
Br1611     Br  0.84655495  0.69514116  0.76047314    -0.01600
Br1612     Br  0.80480580  0.69034963  0.68781289    -0.01600
Br1613     Br  0.69544536  0.73314534  0.81495747    -0.01600
Br1614     Br  0.65244405  0.72611866  0.74324547    -0.01600
C1615       C  0.59419125  0.74413654  0.51564633    -0.02700
C1616       C  0.63029110  0.74172551  0.53290826     0.07000
C1617       C  0.66641820  0.74823097  0.51646633    -0.02800
C1618       C  0.66630637  0.75807641  0.48390789    -0.02800
C1619       C  0.63011957  0.76263543  0.46725355     0.07100
C1620       C  0.59395106  0.75539161  0.48322528    -0.03000
Br1621     Br  0.54488298  0.75760554  0.45938325    -0.01600
Br1622     Br  0.54622671  0.72826935  0.53534108    -0.01600
Br1623     Br  0.71652581  0.76424447  0.46209115    -0.01600
Br1624     Br  0.71705104  0.74117821  0.53732193    -0.01600
C1625       C  0.72985731  0.80367633  0.63546008    -0.02700
C1626       C  0.75498449  0.77870323  0.62705519     0.07000
C1627       C  0.79623835  0.78438241  0.62292633    -0.02800
C1628       C  0.81144132  0.81495917  0.62548399    -0.02800
C1629       C  0.78512054  0.84019168  0.63004963     0.07100
C1630       C  0.74397298  0.83413535  0.63394422    -0.03000
Br1631     Br  0.70482347  0.86691290  0.63182089    -0.01600
Br1632     Br  0.67596635  0.79689739  0.65130953    -0.01600
Br1633     Br  0.86822415  0.82206146  0.62258179    -0.01600
Br1634     Br  0.83175258  0.75084624  0.61271863    -0.01600
C1635       C  0.67959960  0.56558529  0.60416595    -0.02700
C1636       C  0.68542253  0.58416074  0.63182714     0.07000
C1637       C  0.70344222  0.57144003  0.65929869    -0.02800
C1638       C  0.72115537  0.54214091  0.65766786    -0.02800
C1639       C  0.72148296  0.52524393  0.62815166     0.07100
C1640       C  0.69679852  0.53578709  0.60260208    -0.03000
Br1641     Br  0.68447857  0.01104493  0.56729180    -0.01600
Br1642     Br  0.65057884  0.58177317  0.56747167    -0.01600
Br1643     Br  0.74393478  0.52576098  0.69683328    -0.01600
Br1644     Br  0.70505763  0.59529460  0.69877364    -0.01600
C1645       C  0.52469399  0.72168175  0.66142294    -0.02700
C1646       C  0.54350874  0.69367900  0.65312179     0.07000
C1647       C  0.52026841  0.66649556  0.65144586    -0.02800
C1648       C  0.47821832  0.66808984  0.65232936    -0.02800
C1649       C  0.45884931  0.69711410  0.65498581     0.07100
C1650       C  0.48267899  0.72309219  0.66369725    -0.03000
Br1651     Br  0.45907355  0.76063847  0.68018386    -0.01600
Br1652     Br  0.55565741  0.75911978  0.66680150    -0.01600
Br1653     Br  0.44844274  0.62990373  0.65124977    -0.01600
Br1654     Br  0.54647820  0.62686544  0.64808886    -0.01600
C1655       C  0.77702272  0.63349427  0.53307986    -0.02700
C1656       C  0.73929551  0.64750793  0.53146311     0.07000
C1657       C  0.71544558  0.64397100  0.50343857    -0.02800
C1658       C  0.72901056  0.62624011  0.47739137    -0.02800
C1659       C  0.76685692  0.61252452  0.47887423     0.07100
C1660       C  0.79080264  0.61607868  0.50679928    -0.03000
Br1661     Br  0.84223618  0.59640789  0.50975941    -0.01600
Br1662     Br  0.80910405  0.63656655  0.57187007    -0.01600
Br1663     Br  0.69642000  0.62235361  0.43893817    -0.01600
Br1664     Br  0.66450993  0.66420729  0.49959250    -0.01600
loop_ 
_geom_bond_atom_site_label_1 
_geom_bond_atom_site_label_2 
_geom_bond_distance 
_geom_bond_site_symmetry_2 
_ccdc_geom_bond_type 
O1          Cr19   1.956       .  S
O1            C9   1.256       .  A
O2          Cr19   1.975       .  S
O2            C3   1.256       .  A
C3            O4   1.266       .  A
C3          C824   1.475       .  S
O4          Cr20   1.996       .  S
O5          Cr20   2.048       .  S
O5            C6   1.267       .  A
C6            O7   1.247       .  A
C6          C794   1.490       .  S
O7          Cr21   1.952       .  S
O8          Cr21   2.053       .  S
O8            C9   1.275       .  A
C9          C784   1.505       .  S
O10         Cr19   1.994       .  S
O10          C18   1.263       .  A
O11         Cr19   1.977       .  S
O11          C12   1.265       .  A
C12          O13   1.273       .  A
C12         C804   1.476       .  S
O13         Cr20   2.018       .  S
O14         Cr20   1.962       .  S
O14          C15   1.258       .  A
C15          O16   1.280       .  A
C15         C774   1.502       .  S
O16         Cr21   2.064       .  S
O17         Cr21   1.994       .  S
O17          C18   1.262       .  A
C18         C814   1.495       .  S
Cr19         O22   1.763       .  S
Cr20         O22   1.773       .  S
Cr21         O22   1.763       .  S
O23         Cr41   2.026       .  S
O23          C31   1.270       .  A
O24         Cr41   1.961       .  S
O24          C25   1.242       .  A
C25          O26   1.264       .  A
C25         C744   1.496   1_545  S
O26         Cr42   2.032       .  S
O27         Cr42   1.960       .  S
O27          C28   1.255       .  A
C28          O29   1.250       .  A
C28         C827   1.494       .  S
O29         Cr43   1.966       .  S
O30         Cr43   2.018       .  S
O30          C31   1.269       .  A
C31         C754   1.514       .  S
O32         Cr41   2.004       .  S
O32          C40   1.257       .  A
O33         Cr41   2.034       .  S
O33          C34   1.287       .  A
C34          O35   1.268       .  A
C34         C724   1.507       .  S
O35         Cr42   1.987       .  S
O36         Cr42   1.989       .  S
O36          C37   1.268       .  A
C37          O38   1.264       .  A
C37         C734   1.493       .  S
O38         Cr43   1.991       .  S
O39         Cr43   1.988       .  S
O39          C40   1.256       .  A
C40         C764   1.513       .  S
Cr41         O44   1.777       .  S
Cr42         O44   1.773       .  S
Cr43         O44   1.796       .  S
O45         Cr63   2.012       .  S
O45          C53   1.266       .  A
O46         Cr63   1.968       .  S
O46          C47   1.254       .  A
C47          O48   1.270       .  A
C47         C697   1.493       .  S
O48         Cr64   2.021       .  S
O49         Cr64   1.990       .  S
O49          C50   1.259       .  A
C50          O51   1.253       .  A
C50         C714   1.472       .  S
O51         Cr65   1.961       .  S
O52         Cr65   2.012       .  S
O52          C53   1.264       .  A
C53         C704   1.506       .  S
O54         Cr63   2.014       .  S
O54          C62   1.264       .  A
O55         Cr63   2.029       .  S
O55          C56   1.282       .  A
C56          O57   1.262       .  A
C56         C674   1.497       .  S
O57         Cr64   1.975       .  S
O58         Cr64   1.990       .  S
O58          C59   1.264       .  A
C59          O60   1.263       .  A
C59         C684   1.489       .  S
O60         Cr65   2.005       .  S
O61         Cr65   1.983       .  S
O61          C62   1.258       .  A
C62         C817   1.507       .  S
Cr63         O66   1.767       .  S
Cr64         O66   1.770       .  S
Cr65         O66   1.780       .  S
O67         Cr85   1.956       .  S
O67          C75   1.259       .  A
O68         Cr85   1.980       .  S
O68          C69   1.255       .  A
C69          O70   1.260       .  A
C69         C717   1.476       .  S
O70         Cr86   1.987       .  S
O71         Cr86   2.001       .  S
O71          C72   1.259       .  A
C72          O73   1.252       .  A
C72         C654   1.480   1_545  S
O73         Cr87   1.966       .  S
O74         Cr87   2.057       .  S
O74          C75   1.281       .  A
C75         C644   1.490       .  S
O76         Cr85   1.990       .  S
O76          C84   1.255       .  A
O77         Cr85   1.983       .  S
O77          C78   1.267       .  A
C78          O79   1.270       .  A
C78         C667   1.473       .  S
O79         Cr86   2.003       .  S
O80         Cr86   1.950       .  S
O80          C81   1.258       .  A
C81          O82   1.279       .  A
C81         C634   1.483       .  S
O82         Cr87   2.050       .  S
O83         Cr87   1.993       .  S
O83          C84   1.258       .  A
C84         C767   1.488       .  S
Cr85         O88   1.782       .  S
Cr86         O88   1.777       .  S
Cr87         O88   1.772       .  S
O89        Cr107   2.015       .  S
O89          C97   1.266       .  A
O90        Cr107   1.958       .  S
O90          C91   1.251       .  A
C91          O92   1.263       .  A
C91         C624   1.499       .  S
O92        Cr108   2.012       .  S
O93        Cr108   2.022       .  S
O93          C94   1.272       .  A
C94          O95   1.259       .  A
C94        C1519   1.500       .  S
O95        Cr109   1.986       .  S
O96        Cr109   1.995       .  S
O96          C97   1.260       .  A
C97         C647   1.496       .  S
O98        Cr107   1.976       .  S
O98         C106   1.255       .  A
O99        Cr107   2.002       .  S
O99         C100   1.264       .  A
C100        O101   1.263       .  A
C100        C694   1.485       .  S
O101       Cr108   1.986       .  S
O102       Cr108   1.989       .  S
O102        C103   1.265       .  A
C103        O104   1.282       .  A
C103        C607   1.504       .  S
O104       Cr109   2.030       .  S
O105       Cr109   2.033       .  S
O105        C106   1.268       .  A
C106        C617   1.500       .  S
Cr107       O110   1.784       .  S
Cr108       O110   1.767       .  S
Cr109       O110   1.773       .  S
O111       Cr129   2.054       .  S
O111        C119   1.279       .  A
O112       Cr129   1.965       .  S
O112        C113   1.253       .  A
C113        O114   1.259       .  A
C113        C664   1.479       .  S
O114       Cr130   2.003       .  S
O115       Cr130   1.998       .  S
O115        C116   1.264       .  A
C116        O117   1.257       .  A
C116        C627   1.479       .  S
O117       Cr131   1.981       .  S
O118       Cr131   1.955       .  S
O118        C119   1.258       .  A
C119        C707   1.493       .  S
O120       Cr129   1.998       .  S
O120        C128   1.259       .  A
O121       Cr129   2.046       .  S
O121        C122   1.277       .  A
C122        O123   1.260       .  A
C122        C587   1.498       .  S
O123       Cr130   1.968       .  S
O124       Cr130   1.989       .  S
O124        C125   1.267       .  A
C125        O126   1.269       .  A
C125        C657   1.475       .  S
O126       Cr131   1.990       .  S
O127       Cr131   1.999       .  S
O127        C128   1.258       .  A
C128        C594   1.500       .  S
Cr129       O132   1.778       .  S
Cr130       O132   1.779       .  S
Cr131       O132   1.782       .  S
O133       Cr151   2.016       .  S
O133        C141   1.271       .  A
O134       Cr151   1.997       .  S
O134        C135   1.264       .  A
C135        O136   1.269       .  A
C135       C1639   1.503       .  S
O136       Cr152   2.009       .  S
O137       Cr152   1.993       .  S
O137        C138   1.261       .  A
C138        O139   1.257       .  A
C138        C574   1.480       .  S
O139       Cr153   1.973       .  S
O140       Cr153   1.999       .  S
O140        C141   1.261       .  A
C141        C757   1.496       .  S
O142       Cr151   2.022       .  S
O142        C150   1.267       .  A
O143       Cr151   2.038       .  S
O143        C144   1.279       .  A
C144        O145   1.257       .  A
C144        C564   1.509       .  S
O145       Cr152   1.968       .  S
O146       Cr152   1.981       .  S
O146        C147   1.260       .  A
C147        O148   1.263       .  A
C147        C797   1.488       .  S
O148       Cr153   2.010       .  S
O149       Cr153   1.989       .  S
O149        C150   1.262       .  A
C150        C614   1.501       .  S
Cr151       O154   1.768       .  S
Cr152       O154   1.773       .  S
Cr153       O154   1.783       .  S
O155       Cr173   1.997       .  S
O155        C163   1.260       .  A
O156       Cr173   1.972       .  S
O156        C157   1.254       .  A
C157        O158   1.259       .  A
C157        C577   1.480       .  S
O158       Cr174   1.988       .  S
O159       Cr174   2.019       .  S
O159        C160   1.271       .  A
C160        O161   1.255       .  A
C160        C737   1.506       .  S
O161       Cr175   1.976       .  S
O162       Cr175   2.010       .  S
O162        C163   1.266       .  A
C163        C787   1.519       .  S
O164       Cr173   1.990       .  S
O164        C172   1.262       .  A
O165       Cr173   2.012       .  S
O165        C166   1.263       .  A
C166        O167   1.262       .  A
C166        C747   1.514       .  S
O167       Cr174   1.982       .  S
O168       Cr174   1.955       .  S
O168        C169   1.255       .  A
C169        O170   1.281       .  A
C169        C554   1.509       .  S
O170       Cr175   2.034       .  S
O171       Cr175   2.016       .  S
O171        C172   1.264       .  A
C172        C597   1.520       .  S
Cr173       O176   1.786       .  S
Cr174       O176   1.777       .  S
Cr175       O176   1.779       .  S
O177       Cr195   1.952       .  S
O177        C185   1.260       .  A
O178       Cr195   1.968       .  S
O178        C179   1.251       .  A
C179        O180   1.261       .  A
C179        C544   1.462       .  S
O180       Cr196   1.994       .  S
O181       Cr196   2.002       .  S
O181        C182   1.257       .  A
C182        O183   1.257       .  A
C182        C514   1.504       .  S
O183       Cr197   1.984       .  S
O184       Cr197   2.054       .  S
O184        C185   1.285       .  A
C185        C504   1.488       .  S
O186       Cr195   1.976       .  S
O186        C194   1.249       .  A
O187       Cr195   1.991       .  S
O187        C188   1.269       .  A
C188        O189   1.268       .  A
C188        C527   1.478       .  S
O189       Cr196   1.998       .  S
O190       Cr196   1.965       .  S
O190        C191   1.263       .  A
C191        O192   1.282       .  A
C191        C777   1.493       .  S
O192       Cr197   2.043       .  S
O193       Cr197   2.014       .  S
O193        C194   1.258       .  A
C194        C534   1.504       .  S
Cr195       O198   1.801       .  S
Cr196       O198   1.788       .  S
Cr197       O198   1.787       .  S
O199       Cr217   2.057       .  S
O199        C207   1.281       .  A
O200       Cr217   1.969       .  S
O200        C201   1.253       .  A
C201        O202   1.260       .  A
C201        C474   1.493   1_545  S
O202       Cr218   2.023       .  S
O203       Cr218   1.992       .  S
O203        C204   1.266       .  A
C204        O205   1.259       .  A
C204        C547   1.466       .  S
O205       Cr219   1.978       .  S
O206       Cr219   1.950       .  S
O206        C207   1.254       .  A
C207        C484   1.494       .  S
O208       Cr217   2.005       .  S
O208        C216   1.263       .  A
O209       Cr217   2.064       .  S
O209        C210   1.283       .  A
C210        O211   1.258       .  A
C210        C727   1.509       .  S
O211       Cr218   1.961       .  S
O212       Cr218   1.997       .  S
O212        C213   1.267       .  A
C213        O214   1.266       .  A
C213        C464   1.481       .  S
O214       Cr219   1.993       .  S
O215       Cr219   1.985       .  S
O215        C216   1.256       .  A
C216        C494   1.495       .  S
Cr217       O220   1.778       .  S
Cr218       O220   1.777       .  S
Cr219       O220   1.786       .  S
O221       Cr239   2.048       .  S
O221        C229   1.277       .  A
O222       Cr239   1.980       .  S
O222        C223   1.256       .  A
C223        O224   1.266       .  A
C223        C437   1.499       .  S
O224       Cr240   2.036       .  S
O225       Cr240   1.989       .  S
O225        C226   1.263       .  A
C226        O227   1.255       .  A
C226        C457   1.474       .  S
O227       Cr241   1.973       .  S
O228       Cr241   1.960       .  S
O228        C229   1.258       .  A
C229        C444   1.492       .  S
O230       Cr239   2.010       .  S
O230        C238   1.265       .  A
O231       Cr239   2.051       .  S
O231        C232   1.278       .  A
C232        O233   1.255       .  A
C232        C677   1.502       .  S
O233       Cr240   1.956       .  S
O234       Cr240   2.013       .  S
O234        C235   1.271       .  A
C235        O236   1.268       .  A
C235        C424   1.484       .  S
O236       Cr241   1.991       .  S
O237       Cr241   1.996       .  S
O237        C238   1.260       .  A
C238        C537   1.501       .  S
Cr239       O242   1.778       .  S
Cr240       O242   1.776       .  S
Cr241       O242   1.778       .  S
O243       Cr261   2.014       .  S
O243        C251   1.266       .  A
O244       Cr261   1.959       .  S
O244        C245   1.252       .  A
C245        O246   1.262       .  A
C245        C454   1.478       .  S
O246       Cr262   1.993       .  S
O247       Cr262   2.020       .  S
O247        C248   1.270       .  A
C248        O249   1.262       .  A
C248        C404   1.511   1_545  S
O249       Cr263   1.995       .  S
O250       Cr263   2.019       .  S
O250        C251   1.271       .  A
C251        C394   1.506       .  S
O252       Cr261   2.001       .  S
O252        C260   1.266       .  A
O253       Cr261   2.042       .  S
O253        C254   1.269       .  A
C254        O255   1.259       .  A
C254        C417   1.509       .  S
O255       Cr262   1.981       .  S
O256       Cr262   1.976       .  S
O256        C257   1.261       .  A
C257        O258   1.277       .  A
C257        C637   1.500       .  S
O258       Cr263   2.028       .  S
O259       Cr263   2.009       .  S
O259        C260   1.264       .  A
C260        C497   1.522       .  S
Cr261       O264   1.788       .  S
Cr262       O264   1.771       .  S
Cr263       O264   1.763       .  S
O265       Cr283   1.964       .  S
O265        C273   1.257       .  A
O266       Cr283   1.969       .  S
O266        C267   1.257       .  A
C267        O268   1.264       .  A
C267        C384   1.455       .  S
O268       Cr284   1.987       .  S
O269       Cr284   2.016       .  S
O269        C270   1.258       .  A
C270        O271   1.254       .  A
C270       C1259   1.491       .  S
O271       Cr285   1.973       .  S
O272       Cr285   2.061       .  S
O272        C273   1.282       .  A
C273        C397   1.508       .  S
O274       Cr283   1.984       .  S
O274        C282   1.257       .  A
O275       Cr283   2.007       .  S
O275        C276   1.269       .  A
C276        O277   1.266       .  A
C276        C434   1.494       .  S
O277       Cr284   2.003       .  S
O278       Cr284   1.968       .  S
O278        C279   1.261       .  A
C279        O280   1.283       .  A
C279        C604   1.516       .  S
O280       Cr285   2.057       .  S
O281       Cr285   2.011       .  S
O281        C282   1.263       .  A
C282        C377   1.501       .  S
Cr283       O286   1.795       .  S
Cr284       O286   1.780       .  S
Cr285       O286   1.784       .  S
O287       Cr305   2.052       .  S
O287        C295   1.278       .  A
O288       Cr305   1.955       .  S
O288        C289   1.249       .  A
C289        O290   1.267       .  A
C289        C414   1.509       .  S
O290       Cr306   2.050       .  S
O291       Cr306   1.993       .  S
O291        C292   1.264       .  A
C292        O293   1.253       .  A
C292        C387   1.457       .  S
O293       Cr307   1.964       .  S
O294       Cr307   1.949       .  S
O294        C295   1.252       .  A
C295        C447   1.494       .  S
O296       Cr305   2.003       .  S
O296        C304   1.262       .  A
O297       Cr305   2.060       .  S
O297        C298   1.281       .  A
C298        O299   1.259       .  A
C298        C584   1.497       .  S
O299       Cr306   1.958       .  S
O300       Cr306   2.023       .  S
O300        C301   1.273       .  A
C301        O302   1.267       .  A
C301        C407   1.483       .  S
O302       Cr307   1.983       .  S
O303       Cr307   1.992       .  S
O303        C304   1.259       .  A
C304        C364   1.496       .  S
Cr305       O308   1.775       .  S
Cr306       O308   1.782       .  S
Cr307       O308   1.783       .  S
O309       Cr327   2.053       .  S
O309        C317   1.278       .  A
O310       Cr327   1.970       .  S
O310        C311   1.251       .  A
C311        O312   1.259       .  A
C311       C1356   1.486       .  S
O312       Cr328   2.009       .  S
O313       Cr328   1.977       .  S
O313        C314   1.262       .  A
C314        O315   1.256       .  A
C314        C354   1.459       .  S
O315       Cr329   1.974       .  S
O316       Cr329   1.967       .  S
O316        C317   1.260       .  A
C317        C487   1.502       .  S
O318       Cr327   2.003       .  S
O318        C326   1.260       .  A
O319       Cr327   2.056       .  S
O319        C320   1.280       .  A
C320        O321   1.258       .  A
C320        C567   1.486       .  S
O321       Cr328   1.949       .  S
O322       Cr328   1.998       .  S
O322        C323   1.265       .  A
C323        O324   1.273       .  A
C323        C517   1.491       .  S
O324       Cr329   2.009       .  S
O325       Cr329   1.998       .  S
O325        C326   1.260       .  A
C326        C374   1.502       .  S
Cr327       O330   1.790       .  S
Cr328       O330   1.785       .  S
Cr329       O330   1.790       .  S
O331       Cr349   1.959       .  S
O331        C339   1.259       .  A
O332       Cr349   1.974       .  S
O332        C333   1.256       .  A
C333        O334   1.263       .  A
C333        C357   1.461       .  S
O334       Cr350   1.982       .  S
O335       Cr350   2.013       .  S
O335        C336   1.260       .  A
C336        O337   1.254       .  A
C336        C467   1.486       .  S
O337       Cr351   1.973       .  S
O338       Cr351   2.042       .  S
O338        C339   1.275       .  A
C339        C507   1.490       .  S
O340       Cr349   1.990       .  S
O340        C348   1.258       .  A
O341       Cr349   2.000       .  S
O341        C342   1.270       .  A
C342        O343   1.266       .  A
C342        C477   1.481       .  S
O343       Cr350   1.995       .  S
O344       Cr350   1.956       .  S
O344        C345   1.257       .  A
C345        O346   1.277       .  A
C345        C557   1.491       .  S
O346       Cr351   2.039       .  S
O347       Cr351   2.004       .  S
O347        C348   1.262       .  A
C348        C367   1.496       .  S
Cr349       O352   1.782       .  S
Cr350       O352   1.783       .  S
Cr351       O352   1.783       .  S
C353        C354   1.412   1_554  A
C353        C358   1.401       .  A
C353       Br360   1.929       .  S
C354        C355   1.406       .  A
C355        C356   1.400   1_556  A
C355       Br362   1.935       .  S
C356        C357   1.412       .  A
C356       Br361   1.929   1_554  S
C357        C358   1.406       .  A
C358       Br359   1.934       .  S
C363        C364   1.415       .  A
C363        C368   1.418   1_455  A
C363       Br370   1.931       .  S
C364        C365   1.414       .  A
C365        C366   1.411   1_455  A
C365       Br372   1.932       .  S
C366        C367   1.413       .  A
C366       Br371   1.932       .  S
C367        C368   1.416       .  A
C368       Br369   1.930       .  S
C373        C374   1.417       .  A
C373        C378   1.419       .  A
C373       Br380   1.930       .  S
C374        C375   1.412       .  A
C375        C376   1.413       .  A
C375       Br382   1.930       .  S
C376        C377   1.415       .  A
C376       Br381   1.931       .  S
C377        C378   1.416       .  A
C378       Br379   1.930       .  S
C383        C384   1.412   1_554  A
C383        C388   1.401       .  A
C383       Br390   1.925       .  S
C384        C385   1.402       .  A
C385        C386   1.397   1_556  A
C385       Br392   1.936       .  S
C386        C387   1.412       .  A
C386       Br391   1.922   1_554  S
C387        C388   1.405       .  A
C388       Br389   1.934       .  S
C393        C394   1.411       .  A
C393        C398   1.411   1_554  A
C393       Br400   1.920       .  S
C394        C395   1.415       .  A
C395        C396   1.424   1_554  A
C395       Br402   1.923       .  S
C396       C1229   1.413       .  A
C396      Br1233   1.922   1_545  S
C397       C1228   1.418       .  A
C397       C1230   1.413       .  A
C398       C1229   1.410       .  A
C398       Br399   1.922       .  S
Br401      C1228   1.922       .  S
C403        C408   1.408       .  A
C403       C1236   1.428       .  A
C403       Br410   1.933       .  S
C404        C405   1.416       .  A
C404       C1235   1.424       .  A
C405       C1238   1.420       .  A
C405       Br412   1.923   1_565  S
C406        C407   1.414       .  A
C406       C1237   1.417       .  A
C406       Br411   1.928       .  S
C407        C408   1.400       .  A
C408       Br409   1.934       .  S
C413        C414   1.418       .  A
C413        C418   1.427       .  A
C413       Br420   1.927       .  S
C414        C415   1.419       .  A
C415        C416   1.404       .  A
C415       Br422   1.941       .  S
C416        C417   1.416       .  A
C416       Br421   1.937       .  S
C417        C418   1.420       .  A
C418       Br419   1.927       .  S
C423        C424   1.402       .  A
C423        C428   1.406       .  A
C423       Br430   1.934       .  S
C424        C425   1.415       .  A
C425        C426   1.419       .  A
C425       Br432   1.928       .  S
C426        C427   1.412       .  A
C426       Br431   1.926       .  S
C427       C1102   1.496       .  S
C427        C428   1.417       .  A
C428       Br429   1.918       .  S
C433        C434   1.415       .  A
C433        C438   1.423       .  A
C433       Br440   1.926       .  S
C434        C435   1.406       .  A
C435        C436   1.407       .  A
C435       Br442   1.931       .  S
C436        C437   1.416       .  A
C436       Br441   1.927       .  S
C437        C438   1.414       .  A
C438       Br439   1.926       .  S
C443        C444   1.409       .  A
C443        C448   1.405   1_556  A
C443       Br450   1.931       .  S
C444        C445   1.410       .  A
C445        C446   1.422   1_556  A
C445       Br452   1.921       .  S
C446        C447   1.414       .  A
C446       Br451   1.922       .  S
C447        C448   1.414       .  A
C448       Br449   1.924       .  S
C453        C454   1.410       .  A
C453        C458   1.396   1_554  A
C453       Br460   1.940       .  S
C454        C455   1.423       .  A
C455        C456   1.408   1_554  A
C455       Br462   1.938       .  S
C456        C457   1.410       .  A
C456       Br461   1.936       .  S
C457        C458   1.416       .  A
C458       Br459   1.939       .  S
C463        C464   1.406       .  A
C463        C468   1.402       .  A
C463       Br470   1.934       .  S
C464        C465   1.414       .  A
C465        C466   1.417       .  A
C465       Br472   1.928       .  S
C466        C467   1.413       .  A
C466       Br471   1.928       .  S
C467        C468   1.416       .  A
C468       Br469   1.930       .  S
C473        C474   1.413       .  A
C473       C1310   1.419       .  A
C473       Br480   1.928   1_565  S
C474       C1307   1.416       .  A
C475        C476   1.407       .  A
C475       C1306   1.415       .  A
C475       Br482   1.928       .  S
C476        C477   1.407       .  A
C476       Br481   1.933       .  S
C477        C478   1.412       .  A
C478       C1305   1.416       .  A
C478       Br479   1.928       .  S
C483        C484   1.410       .  A
C483        C488   1.406   1_554  A
C483       Br490   1.928       .  S
C484        C485   1.417       .  A
C485       C1318   1.426   1_554  A
C485       Br492   1.923       .  S
C486        C487   1.412       .  A
C486       C1317   1.428   1_556  A
C486       Br491   1.920       .  S
C487       C1320   1.409       .  A
C488       C1319   1.409       .  A
C488       Br489   1.918       .  S
C493        C494   1.410       .  A
C493        C498   1.417       .  A
C493       Br500   1.932       .  S
C494        C495   1.409       .  A
C495        C496   1.416       .  A
C495       Br502   1.936       .  S
C496        C497   1.433       .  A
C496       Br501   1.940       .  S
C497        C498   1.424       .  A
C498       Br499   1.932       .  S
C503        C504   1.408       .  A
C503        C508   1.402   1_556  A
C503       Br510   1.919       .  S
C504        C505   1.416       .  A
C505        C506   1.423   1_556  A
C505       Br512   1.922       .  S
C506        C507   1.410       .  A
C506       Br511   1.921       .  S
C507        C508   1.408       .  A
C508       Br509   1.927       .  S
C513        C514   1.417       .  A
C513        C518   1.420       .  A
C513       Br520   1.928       .  S
C514        C515   1.418       .  A
C515        C516   1.410       .  A
C515       Br522   1.933       .  S
C516        C517   1.409       .  A
C516       Br521   1.932       .  S
C517        C518   1.414       .  A
C518       Br519   1.928       .  S
C523        C524   1.413       .  A
C523        C528   1.415       .  A
C523      Br1362   1.929       .  S
C524       C1143   1.486       .  S
C524        C525   1.416       .  A
C525        C526   1.403       .  A
C525       Br532   1.933       .  S
C526        C527   1.407       .  A
C526       Br531   1.934       .  S
C527        C528   1.413       .  A
C528       Br529   1.929       .  S
Br530      C1355   1.927       .  S
C533        C534   1.416       .  A
C533        C538   1.415   1_655  A
C533       Br540   1.933       .  S
C534        C535   1.417       .  A
C535        C536   1.420   1_655  A
C535       Br542   1.930       .  S
C536        C537   1.415       .  A
C536       Br541   1.930       .  S
C537        C538   1.414       .  A
C538       Br539   1.932       .  S
C543        C544   1.413   1_554  A
C543        C548   1.404       .  A
C543       Br550   1.930       .  S
C544        C545   1.404       .  A
C545        C546   1.400   1_556  A
C545       Br552   1.935       .  S
C546        C547   1.414       .  A
C546       Br551   1.927       .  S
C547        C548   1.407       .  A
C548       Br549   1.933       .  S
C553        C554   1.413       .  A
C553        C558   1.417       .  A
C553       Br560   1.931       .  S
C554        C555   1.437       .  A
C555        C556   1.409       .  A
C555       Br562   1.943       .  S
C556        C557   1.400       .  A
C556       Br561   1.937       .  S
C557        C558   1.421       .  A
C558       Br559   1.933       .  S
C563        C564   1.414       .  A
C563        C568   1.417       .  A
C563       Br570   1.931       .  S
C564        C565   1.431       .  A
C565        C566   1.409       .  A
C565       Br572   1.931       .  S
C566        C567   1.399       .  A
C566       Br571   1.935       .  S
C567        C568   1.417       .  A
C568       Br569   1.920       .  S
C573        C574   1.417       .  A
C573        C578   1.405       .  A
C573       Br580   1.938       .  S
C574        C575   1.413       .  A
C575        C576   1.405       .  A
C575       Br582   1.935       .  S
C576        C577   1.417       .  A
C576       Br581   1.938       .  S
C577        C578   1.412       .  A
C578       Br579   1.934       .  S
C583        C584   1.406       .  A
C583        C588   1.416       .  A
C583       Br590   1.929       .  S
C584        C585   1.421       .  A
C585        C586   1.415       .  A
C585       Br592   1.929       .  S
C586        C587   1.407       .  A
C586       Br591   1.931       .  S
C587        C588   1.422       .  A
C588       Br589   1.929       .  S
C593        C594   1.412       .  A
C593        C598   1.416       .  A
C593       Br600   1.935       .  S
C594        C595   1.412       .  A
C595        C596   1.417       .  A
C595       Br602   1.936       .  S
C596        C597   1.429       .  A
C596       Br601   1.938       .  S
C597        C598   1.425       .  A
C598       Br599   1.935       .  S
C603        C604   1.414       .  A
C603        C608   1.415       .  A
C603       Br610   1.933       .  S
C604        C605   1.432       .  A
C605        C606   1.420       .  A
C605       Br612   1.934       .  S
C606        C607   1.405       .  A
C606       Br611   1.930       .  S
C607        C608   1.421       .  A
C608       Br609   1.932       .  S
C613        C614   1.416       .  A
C613        C618   1.417   1_655  A
C613       Br620   1.929       .  S
C614        C615   1.417       .  A
C615        C616   1.414   1_655  A
C615       Br622   1.937       .  S
C616        C617   1.419       .  A
C616       Br621   1.938       .  S
C617        C618   1.413       .  A
C618       Br619   1.930       .  S
C623        C624   1.418       .  A
C623        C628   1.402       .  A
C623       Br630   1.937       .  S
C624        C625   1.430       .  A
C625        C626   1.413       .  A
C625       Br632   1.939       .  S
C626        C627   1.407       .  A
C626       Br631   1.936       .  S
C627        C628   1.411       .  A
C628       Br629   1.936       .  S
C633        C634   1.399       .  A
C633        C638   1.405       .  A
C633       Br640   1.934       .  S
C634        C635   1.419       .  A
C635        C636   1.416       .  A
C635       Br642   1.918       .  S
C636        C637   1.412       .  A
C636       Br641   1.932       .  S
C637        C638   1.424       .  A
C638       Br639   1.925       .  S
C643        C644   1.404       .  A
C643       C1480   1.405       .  A
C643       Br650   1.931       .  S
C644        C645   1.411       .  A
C645        C646   1.426       .  A
C645       Br652   1.924       .  S
C646       C1479   1.416       .  A
C646       Br651   1.917       .  S
C647        C648   1.413       .  A
C647       C1478   1.410       .  A
C648       C1475   1.403       .  A
C648       Br649   1.917       .  S
C653        C654   1.411       .  A
C653       C1490   1.412       .  A
C653       Br660   1.927   1_565  S
C654       C1487   1.417       .  A
C655        C656   1.400       .  A
C655       C1486   1.416       .  A
C655       Br662   1.933       .  S
C656        C657   1.407       .  A
C656       Br661   1.937       .  S
C657        C658   1.415       .  A
C658       C1485   1.414       .  A
C658       Br659   1.929       .  S
C663        C664   1.410       .  A
C663        C668   1.411       .  A
C663       Br670   1.929       .  S
C664        C665   1.415       .  A
C665        C666   1.402       .  A
C665       Br672   1.932       .  S
C666        C667   1.406       .  A
C666       Br671   1.934       .  S
C667        C668   1.414       .  A
C668       Br669   1.930       .  S
C673        C674   1.423       .  A
C673        C678   1.411       .  A
C673       Br680   1.929       .  S
C674        C675   1.405       .  A
C675        C676   1.416       .  A
C675       Br682   1.930       .  S
C676        C677   1.429       .  A
C676       Br681   1.934       .  S
C677        C678   1.408       .  A
C678       Br679   1.934       .  S
C683        C684   1.412       .  A
C683        C688   1.403       .  A
C683       Br690   1.940       .  S
C684        C685   1.417       .  A
C685        C686   1.418       .  A
C685       Br692   1.925       .  S
C686        C687   1.412       .  A
C686      Br1523   1.929       .  S
C687        C926   1.495       .  S
C687        C688   1.417       .  A
C688       Br689   1.930       .  S
Br691      C1518   1.930       .  S
C693        C694   1.417       .  A
C693        C698   1.418       .  A
C693       Br700   1.929       .  S
C694        C695   1.411       .  A
C695        C696   1.400       .  A
C695       Br702   1.940       .  S
C696        C697   1.417       .  A
C696       Br701   1.934       .  S
C697        C698   1.412       .  A
C698       Br699   1.927       .  S
C703        C704   1.418       .  A
C703        C708   1.425       .  A
C703       Br710   1.922       .  S
C704        C705   1.416       .  A
C705        C706   1.406       .  A
C705       Br712   1.920       .  S
C706        C707   1.407       .  A
C706       Br711   1.930       .  S
C707        C708   1.410       .  A
C708       Br709   1.922       .  S
C713        C714   1.410       .  A
C713        C718   1.400       .  A
C713       Br720   1.938       .  S
C714        C715   1.418       .  A
C715        C716   1.404       .  A
C715       Br722   1.939       .  S
C716        C717   1.412       .  A
C716       Br721   1.934       .  S
C717        C718   1.418       .  A
C718       Br719   1.940       .  S
C723        C724   1.425       .  A
C723        C728   1.413       .  A
C723       Br730   1.931       .  S
C724        C725   1.407       .  A
C725        C726   1.421       .  A
C725       Br732   1.930       .  S
C726        C727   1.430       .  A
C726       Br731   1.934       .  S
C727        C728   1.407       .  A
C728       Br729   1.933       .  S
C733        C734   1.420       .  A
C733        C738   1.415       .  A
C733       Br740   1.934       .  S
C734        C735   1.404       .  A
C735        C736   1.410       .  A
C735       Br742   1.938       .  S
C736        C737   1.431       .  A
C736       Br741   1.938       .  S
C737        C738   1.415       .  A
C738       Br739   1.930       .  S
C743        C748   1.410       .  A
C743       C1576   1.412       .  A
C743       Br750   1.933       .  S
C744        C745   1.412       .  A
C744       C1575   1.422       .  A
C745       C1578   1.418       .  A
C745       Br752   1.929   1_565  S
C746        C747   1.429       .  A
C746       C1577   1.418       .  A
C746       Br751   1.933       .  S
C747        C748   1.422       .  A
C748       Br749   1.940       .  S
C753        C754   1.416       .  A
C753        C758   1.413       .  A
C753       Br760   1.914       .  S
C754        C755   1.412       .  A
C755        C756   1.425   1_545  A
C755       Br762   1.923       .  S
C756       C1589   1.421       .  A
C756       Br761   1.923       .  S
C757       C1588   1.416       .  A
C757       C1590   1.407       .  A
C758       C1589   1.411   1_545  A
C758      Br1591   1.926       .  S
Br759      C1590   1.921       .  S
C763        C764   1.422       .  A
C763        C768   1.414   1_655  A
C763       Br770   1.933       .  S
C764        C765   1.428       .  A
C765        C766   1.414   1_655  A
C765       Br772   1.937       .  S
C766        C767   1.410       .  A
C766       Br771   1.936       .  S
C767        C768   1.409       .  A
C768       Br769   1.932       .  S
C773        C774   1.425       .  A
C773        C778   1.415       .  A
C773       Br780   1.933       .  S
C774        C775   1.410       .  A
C775        C776   1.416       .  A
C775       Br782   1.931       .  S
C776        C777   1.419       .  A
C776       Br781   1.930       .  S
C777        C778   1.404       .  A
C778       Br779   1.931       .  S
C783        C784   1.410       .  A
C783        C788   1.429       .  A
C783       Br790   1.926       .  S
C784        C785   1.407       .  A
C785        C786   1.402       .  A
C785       Br792   1.930       .  S
C786        C787   1.418       .  A
C786       Br791   1.928       .  S
C787        C788   1.433       .  A
C788       Br789   1.929       .  S
C793        C794   1.417       .  A
C793        C798   1.399       .  A
C793       Br800   1.941       .  S
C794        C795   1.412       .  A
C795        C796   1.418       .  A
C795       Br802   1.927       .  S
C796        C797   1.417       .  A
C796       Br801   1.929       .  S
C797        C798   1.412       .  A
C798       Br799   1.937       .  S
C803        C804   1.414       .  A
C803        C808   1.416       .  A
C803       Br810   1.930       .  S
C804        C805   1.398       .  A
C805        C806   1.403       .  A
C805       Br812   1.933       .  S
C806        C807   1.420       .  A
C806       Br811   1.918       .  S
C807        C967   1.504   1_545  S
C807        C808   1.414       .  A
C808      Br1641   1.918       .  S
Br809      C1640   1.923       .  S
C813        C814   1.412       .  A
C813        C818   1.415       .  A
C813       Br820   1.934       .  S
C814        C815   1.412       .  A
C815        C816   1.409       .  A
C815       Br822   1.939       .  S
C816        C817   1.423       .  A
C816       Br821   1.935       .  S
C817        C818   1.425       .  A
C818       Br819   1.936       .  S
C823        C824   1.407       .  A
C823        C828   1.410       .  A
C823       Br830   1.936       .  S
C824        C825   1.414       .  A
C825        C826   1.398       .  A
C825       Br832   1.941       .  S
C826        C827   1.422       .  A
C826       Br831   1.949       .  S
C827        C828   1.427       .  A
C828       Br829   1.938       .  S
O833       Cr851   1.939       .  S
O833        C841   1.248       .  A
O834       Cr851   1.974       .  S
O834        C835   1.257       .  A
C835        O836   1.266       .  A
C835       C1656   1.465       .  S
O836       Cr852   1.991       .  S
O837       Cr852   2.048       .  S
O837        C838   1.264       .  A
C838        O839   1.246       .  A
C838       C1626   1.492       .  S
O839       Cr853   1.949       .  S
O840       Cr853   2.044       .  S
O840        C841   1.274       .  A
C841       C1616   1.484       .  S
O842       Cr851   1.999       .  S
O842        C850   1.263       .  A
O843       Cr851   1.973       .  S
O843        C844   1.263       .  A
C844        O845   1.272       .  A
C844       C1636   1.473       .  S
O845       Cr852   2.017       .  S
O846       Cr852   1.964       .  S
O846        C847   1.261       .  A
C847        O848   1.279       .  A
C847       C1606   1.496       .  S
O848       Cr853   2.055       .  S
O849       Cr853   1.987       .  S
O849        C850   1.260       .  A
C850       C1646   1.489       .  S
Cr851       O854   1.774       .  S
Cr852       O854   1.776       .  S
Cr853       O854   1.765       .  S
O855       Cr873   2.058       .  S
O855        C863   1.281       .  A
O856       Cr873   1.969       .  S
O856        C857   1.253       .  A
C857        O858   1.262       .  A
C857       C1576   1.493       .  S
O858       Cr874   2.020       .  S
O859       Cr874   1.988       .  S
O859        C860   1.262       .  A
C860        O861   1.253       .  A
C860       C1659   1.462       .  S
O861       Cr875   1.970       .  S
O862       Cr875   1.946       .  S
O862        C863   1.255       .  A
C863       C1586   1.492       .  S
O864       Cr873   2.006       .  S
O864        C872   1.260       .  A
O865       Cr873   2.054       .  S
O865        C866   1.281       .  A
C866        O867   1.259       .  A
C866       C1556   1.502       .  S
O867       Cr874   1.960       .  S
O868       Cr874   2.007       .  S
O868        C869   1.270       .  A
C869        O870   1.267       .  A
C869       C1566   1.475       .  S
O870       Cr875   1.985       .  S
O871       Cr875   1.984       .  S
O871        C872   1.254       .  A
C872       C1596   1.493       .  S
Cr873       O876   1.782       .  S
Cr874       O876   1.781       .  S
Cr875       O876   1.790       .  S
O877       Cr895   2.017       .  S
O877        C885   1.264       .  A
O878       Cr895   1.972       .  S
O878        C879   1.251       .  A
C879        O880   1.270       .  A
C879       C1529   1.502       .  S
O880       Cr896   2.029       .  S
O881       Cr896   1.991       .  S
O881        C882   1.261       .  A
C882        O883   1.252       .  A
C882       C1546   1.482       .  S
O883       Cr897   1.964       .  S
O884       Cr897   2.009       .  S
O884        C885   1.265       .  A
C885       C1536   1.509       .  S
O886       Cr895   2.010       .  S
O886        C894   1.264       .  A
O887       Cr895   2.027       .  S
O887        C888   1.282       .  A
C888        O889   1.265       .  A
C888       C1506   1.505       .  S
O889       Cr896   1.986       .  S
O890       Cr896   1.991       .  S
O890        C891   1.266       .  A
C891        O892   1.265       .  A
C891       C1516   1.497       .  S
O892       Cr897   2.014       .  S
O893       Cr897   1.992       .  S
O893        C894   1.262       .  A
C894       C1649   1.512       .  S
Cr895       O898   1.770       .  S
Cr896       O898   1.766       .  S
Cr897       O898   1.792       .  S
O899       Cr917   1.952       .  S
O899        C907   1.257       .  A
O900       Cr917   1.980       .  S
O900        C901   1.256       .  A
C901        O902   1.260       .  A
C901       C1549   1.475       .  S
O902       Cr918   1.989       .  S
O903       Cr918   2.007       .  S
O903        C904   1.259       .  A
C904        O905   1.251       .  A
C904       C1486   1.481       .  S
O905       Cr919   1.960       .  S
O906       Cr919   2.048       .  S
O906        C907   1.280       .  A
C907       C1476   1.484       .  S
O908       Cr917   1.998       .  S
O908        C916   1.259       .  A
O909       Cr917   1.984       .  S
O909        C910   1.268       .  A
C910        O911   1.271       .  A
C910       C1499   1.477       .  S
O911       Cr918   2.007       .  S
O912       Cr918   1.952       .  S
O912        C913   1.258       .  A
C913        O914   1.277       .  A
C913       C1466   1.482       .  S
O914       Cr919   2.046       .  S
O915       Cr919   1.997       .  S
O915        C916   1.259       .  A
C916       C1599   1.496       .  S
Cr917       O920   1.784       .  S
Cr918       O920   1.780       .  S
Cr919       O920   1.777       .  S
O921       Cr939   2.015       .  S
O921        C929   1.264       .  A
O922       Cr939   1.964       .  S
O922        C923   1.252       .  A
C923        O924   1.264       .  A
C923       C1456   1.493       .  S
O924       Cr940   2.008       .  S
O925       Cr940   2.015       .  S
O925        C926   1.272   1_565  A
C926        O927   1.259       .  A
O927       Cr941   1.980   1_545  S
O928       Cr941   2.014   1_545  S
O928        C929   1.264   1_545  A
C929       C1479   1.509   1_565  S
O930       Cr939   1.974       .  S
O930        C938   1.257       .  A
O931       Cr939   2.013       .  S
O931        C932   1.265       .  A
C932        O933   1.263       .  A
C932       C1526   1.494       .  S
O933       Cr940   1.989       .  S
O934       Cr940   1.983       .  S
O934        C935   1.262       .  A
C935        O936   1.283       .  A
C935       C1439   1.508       .  S
O936       Cr941   2.041       .  S
O937       Cr941   2.031       .  S
O937        C938   1.268       .  A
C938       C1449   1.492       .  S
Cr939       O942   1.788       .  S
Cr940       O942   1.767       .  S
Cr941       O942   1.775       .  S
O943       Cr961   2.064       .  S
O943        C951   1.284       .  A
O944       Cr961   1.969       .  S
O944        C945   1.255       .  A
C945        O946   1.259       .  A
C945       C1496   1.485       .  S
O946       Cr962   2.003       .  S
O947       Cr962   2.002       .  S
O947        C948   1.263       .  A
C948        O949   1.256       .  A
C948       C1459   1.481       .  S
O949       Cr963   1.983       .  S
O950       Cr963   1.949       .  S
O950        C951   1.258       .  A
C951       C1539   1.490       .  S
O952       Cr961   2.002       .  S
O952        C960   1.259       .  A
O953       Cr961   2.054       .  S
O953        C954   1.280       .  A
C954        O955   1.260       .  A
C954       C1419   1.505       .  S
O955       Cr962   1.968       .  S
O956       Cr962   1.994       .  S
O956        C957   1.270       .  A
C957        O958   1.267       .  A
C957       C1489   1.471       .  S
O958       Cr963   1.982       .  S
O959       Cr963   1.999       .  S
O959        C960   1.256       .  A
C960       C1426   1.501       .  S
Cr961       O964   1.777       .  S
Cr962       O964   1.781       .  S
Cr963       O964   1.788       .  S
O965       Cr983   2.024       .  S
O965        C973   1.273       .  A
O966       Cr983   1.995   1_545  S
O966        C967   1.264   1_545  A
C967        O968   1.269       .  A
O968       Cr984   2.014       .  S
O969       Cr984   1.999       .  S
O969        C970   1.264       .  A
C970        O971   1.256       .  A
C970       C1406   1.470       .  S
O971       Cr985   1.963       .  S
O972       Cr985   2.003       .  S
O972        C973   1.262       .  A
C973       C1589   1.512       .  S
O974       Cr983   2.018       .  S
O974        C982   1.266       .  A
O975       Cr983   2.032       .  S
O975        C976   1.278       .  A
C976        O977   1.260       .  A
C976       C1396   1.508       .  S
O977       Cr984   1.975       .  S
O978       Cr984   1.986       .  S
O978        C979   1.260       .  A
C979        O980   1.261       .  A
C979       C1629   1.490       .  S
O980       Cr985   2.008       .  S
O981       Cr985   1.983       .  S
O981        C982   1.259       .  A
C982       C1446   1.489       .  S
Cr983       O986   1.768       .  S
Cr984       O986   1.772       .  S
Cr985       O986   1.782       .  S
O987      Cr1005   2.005       .  S
O987        C995   1.262       .  A
O988      Cr1005   1.975       .  S
O988        C989   1.259       .  A
C989        O990   1.259       .  A
C989       C1409   1.473       .  S
O990      Cr1006   1.987       .  S
O991      Cr1006   2.019       .  S
O991        C992   1.270       .  A
C992        O993   1.257       .  A
C992       C1569   1.510       .  S
O993      Cr1007   1.976       .  S
O994      Cr1007   1.996       .  S
O994        C995   1.262       .  A
C995       C1619   1.490       .  S
O996      Cr1005   1.995       .  S
O996       C1004   1.264       .  A
O997      Cr1005   2.015       .  S
O997        C998   1.262       .  A
C998        O999   1.259       .  A
C998       C1579   1.494       .  S
O999      Cr1006   1.983       .  S
O1000     Cr1006   1.950       .  S
O1000      C1001   1.253       .  A
C1001      O1002   1.277       .  A
C1001      C1386   1.498       .  S
O1002     Cr1007   2.021       .  S
O1003     Cr1007   2.023       .  S
O1003      C1004   1.267       .  A
C1004      C1429   1.525       .  S
Cr1005     O1008   1.795       .  S
Cr1006     O1008   1.779       .  S
Cr1007     O1008   1.778       .  S
O1009     Cr1027   1.960       .  S
O1009      C1017   1.261       .  A
O1010     Cr1027   1.964       .  S
O1010      C1011   1.250       .  A
C1011      O1012   1.259       .  A
C1011      C1376   1.454       .  S
O1012     Cr1028   1.989       .  S
O1013     Cr1028   1.999       .  S
O1013      C1014   1.257       .  A
C1014      O1015   1.256       .  A
C1014      C1346   1.493       .  S
O1015     Cr1029   1.968       .  S
O1016     Cr1029   2.060       .  S
O1016      C1017   1.284       .  A
C1017      C1336   1.498       .  S
O1018     Cr1027   1.978       .  S
O1018      C1026   1.251       .  A
O1019     Cr1027   1.995       .  S
O1019      C1020   1.270       .  A
C1020      O1021   1.268       .  A
C1020      C1359   1.480       .  S
O1021     Cr1028   1.996       .  S
O1022     Cr1028   1.963       .  S
O1022      C1023   1.261       .  A
C1023      O1024   1.278       .  A
C1023      C1609   1.492       .  S
O1024     Cr1029   2.038       .  S
O1025     Cr1029   2.003       .  S
O1025      C1026   1.257       .  A
C1026      C1366   1.492       .  S
Cr1027     O1030   1.797       .  S
Cr1028     O1030   1.787       .  S
Cr1029     O1030   1.785       .  S
O1031     Cr1049   2.063       .  S
O1031      C1039   1.284       .  A
O1032     Cr1049   1.985       .  S
O1032      C1033   1.258       .  A
C1033      O1034   1.257       .  A
C1033      C1306   1.492       .  S
O1034     Cr1050   1.999       .  S
O1035     Cr1050   1.992       .  S
O1035      C1036   1.262       .  A
C1036      O1037   1.253       .  A
C1036      C1379   1.457       .  S
O1037     Cr1051   1.968       .  S
O1038     Cr1051   1.955       .  S
O1038      C1039   1.258       .  A
C1039      C1316   1.497       .  S
O1040     Cr1049   2.009       .  S
O1040      C1048   1.260       .  A
O1041     Cr1049   2.044       .  S
O1041      C1042   1.280       .  A
C1042      O1043   1.263       .  A
C1042      C1559   1.501       .  S
O1043     Cr1050   1.970       .  S
O1044     Cr1050   1.995       .  S
O1044      C1045   1.267       .  A
C1045      O1046   1.266       .  A
C1045      C1296   1.483       .  S
O1046     Cr1051   1.992       .  S
O1047     Cr1051   1.973       .  S
O1047      C1048   1.251       .  A
C1048      C1326   1.495       .  S
Cr1049     O1052   1.785       .  S
Cr1050     O1052   1.786       .  S
Cr1051     O1052   1.798       .  S
O1053     Cr1071   2.053       .  S
O1053      C1061   1.278       .  A
O1054     Cr1071   1.978       .  S
O1054      C1055   1.257       .  A
C1055      O1056   1.262       .  A
C1055      C1269   1.488       .  S
O1056     Cr1072   2.018       .  S
O1057     Cr1072   1.983       .  S
O1057      C1058   1.261       .  A
C1058      O1059   1.258       .  A
C1058      C1289   1.470       .  S
O1059     Cr1073   1.978       .  S
O1060     Cr1073   1.959       .  S
O1060      C1061   1.259       .  A
C1061      C1276   1.494       .  S
O1062     Cr1071   2.003       .  S
O1062      C1070   1.263       .  A
O1063     Cr1071   2.052       .  S
O1063      C1064   1.278       .  A
C1064      O1065   1.257       .  A
C1064      C1509   1.506       .  S
O1065     Cr1072   1.961       .  S
O1066     Cr1072   2.002       .  S
O1066      C1067   1.268       .  A
C1067      O1068   1.268       .  A
C1067      C1256   1.484       .  S
O1068     Cr1073   1.997       .  S
O1069     Cr1073   1.990       .  S
O1069      C1070   1.259       .  A
C1070      C1369   1.494       .  S
Cr1071     O1074   1.779       .  S
Cr1072     O1074   1.774       .  S
Cr1073     O1074   1.781       .  S
O1075     Cr1093   2.026       .  S
O1075      C1083   1.271       .  A
O1076     Cr1093   1.957       .  S
O1076      C1077   1.252       .  A
C1077      O1078   1.261       .  A
C1077      C1286   1.485       .  S
O1078     Cr1094   1.991       .  S
O1079     Cr1094   2.019       .  S
O1079      C1080   1.270       .  A
C1080      O1081   1.258       .  A
C1080      C1236   1.506       .  S
O1081     Cr1095   1.981       .  S
O1082     Cr1095   2.018       .  S
O1082      C1083   1.271       .  A
C1083      C1226   1.510       .  S
O1084     Cr1093   2.005       .  S
O1084      C1092   1.264       .  A
O1085     Cr1093   2.038       .  S
O1085      C1086   1.270       .  A
C1086      O1087   1.261       .  A
C1086      C1249   1.507       .  S
O1087     Cr1094   1.984       .  S
O1088     Cr1094   1.970       .  S
O1088      C1089   1.258       .  A
C1089      O1090   1.280       .  A
C1089      C1469   1.507       .  S
O1090     Cr1095   2.038       .  S
O1091     Cr1095   2.002       .  S
O1091      C1092   1.260       .  A
C1092      C1329   1.520       .  S
Cr1093     O1096   1.786       .  S
Cr1094     O1096   1.771       .  S
Cr1095     O1096   1.765       .  S
O1097     Cr1115   1.954       .  S
O1097      C1105   1.256       .  A
O1098     Cr1115   1.979       .  S
O1098      C1099   1.258       .  A
C1099      O1100   1.267       .  A
C1099      C1216   1.465       .  S
O1100     Cr1116   1.991       .  S
O1101     Cr1116   2.024       .  S
O1101      C1102   1.260   1_565  A
C1102      O1103   1.254       .  A
O1103     Cr1117   1.978   1_545  S
O1104     Cr1117   2.059       .  S
O1104      C1105   1.282       .  A
C1105      C1229   1.499   1_565  S
O1106     Cr1115   1.988       .  S
O1106      C1114   1.257       .  A
O1107     Cr1115   2.001       .  S
O1107      C1108   1.268       .  A
C1108      O1109   1.265       .  A
C1108      C1266   1.483       .  S
O1109     Cr1116   1.995       .  S
O1110     Cr1116   1.964       .  S
O1110      C1111   1.259       .  A
C1111      O1112   1.285       .  A
C1111      C1436   1.522       .  S
O1112     Cr1117   2.066       .  S
O1113     Cr1117   2.012       .  S
O1113      C1114   1.263       .  A
C1114      C1209   1.504       .  S
Cr1115     O1118   1.794       .  S
Cr1116     O1118   1.781       .  S
Cr1117     O1118   1.784       .  S
O1119     Cr1137   2.053       .  S
O1119      C1127   1.278       .  A
O1120     Cr1137   1.953       .  S
O1120      C1121   1.245       .  A
C1121      O1122   1.264       .  A
C1121      C1246   1.509       .  S
O1122     Cr1138   2.054       .  S
O1123     Cr1138   1.991       .  S
O1123      C1124   1.267       .  A
C1124      O1125   1.259       .  A
C1124      C1219   1.466       .  S
O1125     Cr1139   1.980       .  S
O1126     Cr1139   1.955       .  S
O1126      C1127   1.253       .  A
C1127      C1279   1.498       .  S
O1128     Cr1137   1.999       .  S
O1128      C1136   1.262       .  A
O1129     Cr1137   2.076       .  S
O1129      C1130   1.286       .  A
C1130      O1131   1.260       .  A
C1130      C1416   1.505       .  S
O1131     Cr1138   1.959       .  S
O1132     Cr1138   2.017       .  S
O1132      C1133   1.270       .  A
C1133      O1134   1.268       .  A
C1133      C1239   1.486       .  S
O1134     Cr1139   1.991       .  S
O1135     Cr1139   1.999       .  S
O1135      C1136   1.263       .  A
C1136      C1196   1.498       .  S
Cr1137     O1140   1.775       .  S
Cr1138     O1140   1.784       .  S
Cr1139     O1140   1.784       .  S
O1141     Cr1159   2.052   1_545  S
O1141      C1149   1.279   1_545  A
O1142     Cr1159   1.972   1_545  S
O1142      C1143   1.251       .  A
C1143      O1144   1.256   1_545  A
O1144     Cr1160   2.001       .  S
O1145     Cr1160   1.974       .  S
O1145      C1146   1.259       .  A
C1146      O1147   1.254       .  A
C1146      C1186   1.460       .  S
O1147     Cr1161   1.970       .  S
O1148     Cr1161   1.969       .  S
O1148      C1149   1.260       .  A
C1149      C1319   1.501   1_565  S
O1150     Cr1159   2.008       .  S
O1150      C1158   1.261       .  A
O1151     Cr1159   2.057       .  S
O1151      C1152   1.282       .  A
C1152      O1153   1.258       .  A
C1152      C1399   1.485       .  S
O1153     Cr1160   1.946       .  S
O1154     Cr1160   2.000       .  S
O1154      C1155   1.266       .  A
C1155      O1156   1.273       .  A
C1155      C1349   1.489       .  S
O1156     Cr1161   2.007       .  S
O1157     Cr1161   1.989       .  S
O1157      C1158   1.256       .  A
C1158      C1206   1.501       .  S
Cr1159     O1162   1.784       .  S
Cr1160     O1162   1.782       .  S
Cr1161     O1162   1.787       .  S
O1163     Cr1181   1.974       .  S
O1163      C1171   1.261       .  A
O1164     Cr1181   1.964       .  S
O1164      C1165   1.252       .  A
C1165      O1166   1.266       .  A
C1165      C1189   1.463       .  S
O1166     Cr1182   1.983       .  S
O1167     Cr1182   2.020       .  S
O1167      C1168   1.260       .  A
C1168      O1169   1.252       .  A
C1168      C1299   1.489       .  S
O1169     Cr1183   1.971       .  S
O1170     Cr1183   2.043       .  S
O1170      C1171   1.275       .  A
C1171      C1339   1.502       .  S
O1172     Cr1181   1.992       .  S
O1172      C1180   1.259       .  A
O1173     Cr1181   2.007       .  S
O1173      C1174   1.273       .  A
C1174      O1175   1.266       .  A
C1174      C1309   1.490       .  S
O1175     Cr1182   1.993       .  S
O1176     Cr1182   1.948       .  S
O1176      C1177   1.256       .  A
C1177      O1178   1.275       .  A
C1177      C1389   1.481       .  S
O1178     Cr1183   2.037       .  S
O1179     Cr1183   2.001       .  S
O1179      C1180   1.260       .  A
C1180      C1199   1.496       .  S
Cr1181     O1184   1.777       .  S
Cr1182     O1184   1.781       .  S
Cr1183     O1184   1.780       .  S
C1185      C1186   1.415   1_554  A
C1185      C1190   1.400       .  A
C1185     Br1192   1.933       .  S
C1186      C1187   1.404       .  A
C1187      C1188   1.397   1_556  A
C1187     Br1194   1.938       .  S
C1188      C1189   1.419       .  A
C1188     Br1193   1.936       .  S
C1189      C1190   1.406       .  A
C1190     Br1191   1.935       .  S
C1195      C1196   1.418       .  A
C1195      C1200   1.419   1_455  A
C1195     Br1202   1.931       .  S
C1196      C1197   1.412       .  A
C1197      C1198   1.411   1_455  A
C1197     Br1204   1.930       .  S
C1198      C1199   1.412       .  A
C1198     Br1203   1.930       .  S
C1199      C1200   1.416       .  A
C1200     Br1201   1.932       .  S
C1205      C1206   1.416       .  A
C1205      C1210   1.420       .  A
C1205     Br1212   1.931   1_565  S
C1206      C1207   1.414       .  A
C1207      C1208   1.415       .  A
C1207     Br1214   1.931       .  S
C1208      C1209   1.415       .  A
C1208     Br1213   1.931       .  S
C1209      C1210   1.417       .  A
C1210     Br1211   1.930   1_565  S
C1215      C1216   1.414   1_554  A
C1215      C1220   1.404       .  A
C1215     Br1222   1.926       .  S
C1216      C1217   1.405       .  A
C1217      C1218   1.401   1_556  A
C1217     Br1224   1.935       .  S
C1218      C1219   1.414       .  A
C1218     Br1223   1.924   1_554  S
C1219      C1220   1.406       .  A
C1220     Br1221   1.934       .  S
C1225      C1226   1.411       .  A
C1225      C1230   1.413   1_554  A
C1225     Br1232   1.918       .  S
C1226      C1227   1.413       .  A
C1227      C1228   1.427   1_554  A
C1227     Br1234   1.923       .  S
C1230     Br1231   1.921       .  S
C1235      C1240   1.409       .  A
C1235     Br1242   1.929       .  S
C1236      C1237   1.414       .  A
C1237     Br1244   1.924       .  S
C1238      C1239   1.414       .  A
C1238     Br1243   1.928       .  S
C1239      C1240   1.401       .  A
C1240     Br1241   1.932       .  S
C1245      C1246   1.418       .  A
C1245      C1250   1.425       .  A
C1245     Br1252   1.927       .  S
C1246      C1247   1.421       .  A
C1247      C1248   1.406       .  A
C1247     Br1254   1.944       .  S
C1248      C1249   1.416       .  A
C1248     Br1253   1.934       .  S
C1249      C1250   1.417       .  A
C1250     Br1251   1.925       .  S
C1255      C1256   1.405       .  A
C1255      C1260   1.404       .  A
C1255     Br1262   1.932       .  S
C1256      C1257   1.415       .  A
C1257      C1258   1.419       .  A
C1257     Br1264   1.927       .  S
C1258      C1259   1.413       .  A
C1258     Br1263   1.927       .  S
C1259      C1260   1.414       .  A
C1260     Br1261   1.925       .  S
C1265      C1266   1.413       .  A
C1265      C1270   1.417       .  A
C1265     Br1272   1.927       .  S
C1266      C1267   1.406       .  A
C1267      C1268   1.405       .  A
C1267     Br1274   1.929       .  S
C1268      C1269   1.414       .  A
C1268     Br1273   1.929       .  S
C1269      C1270   1.412       .  A
C1270     Br1271   1.926       .  S
C1275      C1276   1.407       .  A
C1275      C1280   1.404   1_556  A
C1275     Br1282   1.929       .  S
C1276      C1277   1.412       .  A
C1277      C1278   1.426   1_556  A
C1277     Br1284   1.924       .  S
C1278      C1279   1.418       .  A
C1278     Br1283   1.924       .  S
C1279      C1280   1.413       .  A
C1280     Br1281   1.923       .  S
C1285      C1286   1.415       .  A
C1285      C1290   1.395       .  A
C1285     Br1292   1.938       .  S
C1286      C1287   1.426       .  A
C1287      C1288   1.408   1_554  A
C1287     Br1294   1.938       .  S
C1288      C1289   1.408       .  A
C1288     Br1293   1.936       .  S
C1289      C1290   1.409   1_556  A
C1290     Br1291   1.936       .  S
C1295      C1296   1.406       .  A
C1295      C1300   1.403       .  A
C1295     Br1302   1.937       .  S
C1296      C1297   1.415       .  A
C1297      C1298   1.417       .  A
C1297     Br1304   1.928       .  S
C1298      C1299   1.412       .  A
C1298     Br1303   1.927       .  S
C1299      C1300   1.418       .  A
C1300     Br1301   1.929       .  S
C1305      C1306   1.414       .  A
C1305     Br1312   1.927       .  S
C1307      C1308   1.406       .  A
C1307     Br1314   1.934       .  S
C1308      C1309   1.412       .  A
C1308     Br1313   1.937       .  S
C1309      C1310   1.416       .  A
C1310     Br1311   1.928       .  S
C1315      C1316   1.407       .  A
C1315      C1320   1.405   1_554  A
C1315     Br1322   1.922       .  S
C1316      C1317   1.419       .  A
C1317     Br1324   1.923       .  S
C1318      C1319   1.411       .  A
C1318     Br1323   1.918       .  S
C1320     Br1321   1.919       .  S
C1325      C1326   1.412       .  A
C1325      C1330   1.417       .  A
C1325     Br1332   1.934       .  S
C1326      C1327   1.408       .  A
C1327      C1328   1.415       .  A
C1327     Br1334   1.934       .  S
C1328      C1329   1.430       .  A
C1328     Br1333   1.938       .  S
C1329      C1330   1.423       .  A
C1330     Br1331   1.930       .  S
C1335      C1336   1.407       .  A
C1335      C1340   1.404   1_556  A
C1335     Br1342   1.917       .  S
C1336      C1337   1.419       .  A
C1337      C1338   1.425   1_556  A
C1337     Br1344   1.924       .  S
C1338      C1339   1.412       .  A
C1338     Br1343   1.923       .  S
C1339      C1340   1.411       .  A
C1340     Br1341   1.922       .  S
C1345      C1346   1.414       .  A
C1345      C1350   1.419       .  A
C1345     Br1352   1.929       .  S
C1346      C1347   1.412       .  A
C1347      C1348   1.405       .  A
C1347     Br1354   1.935       .  S
C1348      C1349   1.413       .  A
C1348     Br1353   1.932       .  S
C1349      C1350   1.415       .  A
C1350     Br1351   1.928       .  S
C1355      C1356   1.412       .  A
C1355      C1360   1.416       .  A
C1356      C1357   1.415       .  A
C1357      C1358   1.404       .  A
C1357     Br1364   1.932       .  S
C1358      C1359   1.406       .  A
C1358     Br1363   1.933       .  S
C1359      C1360   1.414       .  A
C1360     Br1361   1.927       .  S
C1365      C1366   1.413       .  A
C1365      C1370   1.411   1_655  A
C1365     Br1372   1.933       .  S
C1366      C1367   1.414       .  A
C1367      C1368   1.416   1_655  A
C1367     Br1374   1.931       .  S
C1368      C1369   1.415       .  A
C1368     Br1373   1.931       .  S
C1369      C1370   1.415       .  A
C1370     Br1371   1.933       .  S
C1375      C1376   1.408   1_554  A
C1375      C1380   1.401       .  A
C1375     Br1382   1.927       .  S
C1376      C1377   1.405       .  A
C1377      C1378   1.400   1_556  A
C1377     Br1384   1.933       .  S
C1378      C1379   1.410       .  A
C1378     Br1383   1.923   1_554  S
C1379      C1380   1.407       .  A
C1380     Br1381   1.931       .  S
C1385      C1386   1.410       .  A
C1385      C1390   1.412       .  A
C1385     Br1392   1.932       .  S
C1386      C1387   1.436       .  A
C1387      C1388   1.407       .  A
C1387     Br1394   1.941       .  S
C1388      C1389   1.399       .  A
C1388     Br1393   1.938       .  S
C1389      C1390   1.419       .  A
C1390     Br1391   1.932       .  S
C1395      C1396   1.415       .  A
C1395      C1400   1.416       .  A
C1395     Br1402   1.932       .  S
C1396      C1397   1.429       .  A
C1397      C1398   1.410       .  A
C1397     Br1404   1.932       .  S
C1398      C1399   1.400       .  A
C1398     Br1403   1.935       .  S
C1399      C1400   1.416       .  A
C1400     Br1401   1.922   1_565  S
C1405      C1406   1.413       .  A
C1405      C1410   1.403       .  A
C1405     Br1412   1.938       .  S
C1406      C1407   1.405       .  A
C1407      C1408   1.402       .  A
C1407     Br1414   1.925       .  S
C1408      C1409   1.414       .  A
C1408     Br1413   1.935       .  S
C1409      C1410   1.412       .  A
C1410     Br1411   1.926       .  S
C1415      C1416   1.407       .  A
C1415      C1420   1.419       .  A
C1415     Br1422   1.930       .  S
C1416      C1417   1.424       .  A
C1417      C1418   1.418       .  A
C1417     Br1424   1.930       .  S
C1418      C1419   1.407       .  A
C1418     Br1423   1.930       .  S
C1419      C1420   1.424       .  A
C1420     Br1421   1.928       .  S
C1425      C1426   1.411       .  A
C1425      C1430   1.418       .  A
C1425     Br1432   1.934       .  S
C1426      C1427   1.411       .  A
C1427      C1428   1.418       .  A
C1427     Br1434   1.934       .  S
C1428      C1429   1.428       .  A
C1428     Br1433   1.935       .  S
C1429      C1430   1.424       .  A
C1430     Br1431   1.929       .  S
C1435      C1436   1.414       .  A
C1435      C1440   1.416       .  A
C1435     Br1442   1.934       .  S
C1436      C1437   1.436       .  A
C1437      C1438   1.422       .  A
C1437     Br1444   1.934       .  S
C1438      C1439   1.405       .  A
C1438     Br1443   1.931       .  S
C1439      C1440   1.421       .  A
C1440     Br1441   1.927   1_565  S
C1445      C1446   1.413       .  A
C1445      C1450   1.417   1_655  A
C1445     Br1452   1.929       .  S
C1446      C1447   1.413       .  A
C1447      C1448   1.408   1_655  A
C1447     Br1454   1.936       .  S
C1448      C1449   1.416       .  A
C1448     Br1453   1.936       .  S
C1449      C1450   1.413       .  A
C1450     Br1451   1.928       .  S
C1455      C1456   1.414       .  A
C1455      C1460   1.401       .  A
C1455     Br1462   1.937       .  S
C1456      C1457   1.427       .  A
C1457      C1458   1.413       .  A
C1457     Br1464   1.938       .  S
C1458      C1459   1.411       .  A
C1458     Br1463   1.934       .  S
C1459      C1460   1.412       .  A
C1460     Br1461   1.935       .  S
C1465      C1466   1.394       .  A
C1465      C1470   1.405       .  A
C1465     Br1472   1.936       .  S
C1466      C1467   1.418       .  A
C1467      C1468   1.418       .  A
C1467     Br1474   1.922       .  S
C1468      C1469   1.414       .  A
C1468     Br1473   1.932       .  S
C1469      C1470   1.431       .  A
C1470     Br1471   1.929       .  S
C1475      C1476   1.406       .  A
C1475     Br1482   1.927       .  S
C1476      C1477   1.411       .  A
C1477      C1478   1.421       .  A
C1477     Br1484   1.922       .  S
C1478     Br1483   1.918       .  S
C1479      C1480   1.415       .  A
C1480     Br1481   1.909       .  S
C1485      C1486   1.411       .  A
C1485     Br1492   1.928       .  S
C1487      C1488   1.400       .  A
C1487     Br1494   1.930       .  S
C1488      C1489   1.403       .  A
C1488     Br1493   1.936       .  S
C1489      C1490   1.413       .  A
C1490     Br1491   1.929       .  S
C1495      C1496   1.410       .  A
C1495      C1500   1.414       .  A
C1495     Br1502   1.929       .  S
C1496      C1497   1.416       .  A
C1497      C1498   1.404       .  A
C1497     Br1504   1.929       .  S
C1498      C1499   1.404       .  A
C1498     Br1503   1.935       .  S
C1499      C1500   1.415       .  A
C1500     Br1501   1.929       .  S
C1505      C1506   1.425       .  A
C1505      C1510   1.414       .  A
C1505     Br1512   1.933       .  S
C1506      C1507   1.408       .  A
C1507      C1508   1.419       .  A
C1507     Br1514   1.930       .  S
C1508      C1509   1.428       .  A
C1508     Br1513   1.935       .  S
C1509      C1510   1.409       .  A
C1510     Br1511   1.934       .  S
C1515      C1516   1.413       .  A
C1515      C1520   1.405       .  A
C1515     Br1522   1.940       .  S
C1516      C1517   1.419       .  A
C1517      C1518   1.421       .  A
C1517     Br1524   1.923       .  S
C1518      C1519   1.413       .  A
C1519      C1520   1.419       .  A
C1520     Br1521   1.931       .  S
C1525      C1526   1.419       .  A
C1525      C1530   1.421       .  A
C1525     Br1532   1.930       .  S
C1526      C1527   1.413       .  A
C1527      C1528   1.404       .  A
C1527     Br1534   1.944       .  S
C1528      C1529   1.421       .  A
C1528     Br1533   1.935       .  S
C1529      C1530   1.414       .  A
C1530     Br1531   1.928       .  S
C1535      C1536   1.414       .  A
C1535      C1540   1.423       .  A
C1535     Br1542   1.918       .  S
C1536      C1537   1.417       .  A
C1537      C1538   1.407       .  A
C1537     Br1544   1.912       .  S
C1538      C1539   1.405       .  A
C1538     Br1543   1.932       .  S
C1539      C1540   1.412       .  A
C1540     Br1541   1.922       .  S
C1545      C1546   1.410       .  A
C1545      C1550   1.397       .  A
C1545     Br1552   1.938       .  S
C1546      C1547   1.422       .  A
C1547      C1548   1.410       .  A
C1547     Br1554   1.937       .  S
C1548      C1549   1.412       .  A
C1548     Br1553   1.936       .  S
C1549      C1550   1.413       .  A
C1550     Br1551   1.937       .  S
C1555      C1556   1.424       .  A
C1555      C1560   1.416       .  A
C1555     Br1562   1.932       .  S
C1556      C1557   1.407       .  A
C1557      C1558   1.417       .  A
C1557     Br1564   1.930       .  S
C1558      C1559   1.423       .  A
C1558     Br1563   1.929       .  S
C1559      C1560   1.407       .  A
C1560     Br1561   1.931       .  S
C1565      C1566   1.408       .  A
C1565      C1570   1.415       .  A
C1565     Br1572   1.932       .  S
C1566      C1567   1.398       .  A
C1567      C1568   1.406       .  A
C1567     Br1574   1.935       .  S
C1568      C1569   1.433       .  A
C1568     Br1573   1.939       .  S
C1569      C1570   1.420       .  A
C1570     Br1571   1.918       .  S
C1575      C1580   1.404       .  A
C1575     Br1582   1.938       .  S
C1576      C1577   1.408       .  A
C1577     Br1584   1.931       .  S
C1578      C1579   1.418       .  A
C1578     Br1583   1.923       .  S
C1579      C1580   1.414       .  A
C1580     Br1581   1.944       .  S
C1585      C1586   1.409       .  A
C1585      C1590   1.405       .  A
C1585     Br1592   1.918       .  S
C1586      C1587   1.409       .  A
C1587      C1588   1.422       .  A
C1587     Br1594   1.919       .  S
C1588     Br1593   1.921       .  S
C1595      C1596   1.413       .  A
C1595      C1600   1.412   1_655  A
C1595     Br1602   1.930       .  S
C1596      C1597   1.413       .  A
C1597      C1598   1.417   1_655  A
C1597     Br1604   1.931       .  S
C1598      C1599   1.417       .  A
C1598     Br1603   1.931       .  S
C1599      C1600   1.412       .  A
C1600     Br1601   1.931       .  S
C1605      C1606   1.423       .  A
C1605      C1610   1.415       .  A
C1605     Br1612   1.932       .  S
C1606      C1607   1.408       .  A
C1607      C1608   1.413       .  A
C1607     Br1614   1.931       .  S
C1608      C1609   1.419       .  A
C1608     Br1613   1.929       .  S
C1609      C1610   1.405       .  A
C1610     Br1611   1.930       .  S
C1615      C1616   1.409       .  A
C1615      C1620   1.418       .  A
C1615     Br1622   1.921       .  S
C1616      C1617   1.412       .  A
C1617      C1618   1.404       .  A
C1617     Br1624   1.929       .  S
C1618      C1619   1.409       .  A
C1618     Br1623   1.923       .  S
C1619      C1620   1.411       .  A
C1620     Br1621   1.921       .  S
C1625      C1626   1.417       .  A
C1625      C1630   1.398       .  A
C1625     Br1632   1.940       .  S
C1626      C1627   1.413       .  A
C1627      C1628   1.420       .  A
C1627     Br1634   1.928       .  S
C1628      C1629   1.419       .  A
C1628     Br1633   1.930       .  S
C1629      C1630   1.412       .  A
C1630     Br1631   1.937       .  S
C1635      C1636   1.413       .  A
C1635      C1640   1.415       .  A
C1635     Br1642   1.929       .  S
C1636      C1637   1.395       .  A
C1637      C1638   1.403       .  A
C1637     Br1644   1.934       .  S
C1638      C1639   1.424       .  A
C1638     Br1643   1.919       .  S
C1639      C1640   1.415       .  A
C1645      C1646   1.411       .  A
C1645      C1650   1.413       .  A
C1645     Br1652   1.934       .  S
C1646      C1647   1.410       .  A
C1647      C1648   1.412       .  A
C1647     Br1654   1.934       .  S
C1648      C1649   1.420       .  A
C1648     Br1653   1.927       .  S
C1649      C1650   1.425       .  A
C1650     Br1651   1.936       .  S
C1655      C1656   1.406       .  A
C1655      C1660   1.402       .  A
C1655     Br1662   1.934       .  S
C1656      C1657   1.415       .  A
C1657      C1658   1.400       .  A
C1657     Br1664   1.928       .  S
C1658      C1659   1.404       .  A
C1658     Br1663   1.935       .  S
C1659      C1660   1.414       .  A
C1660     Br1661   1.929       .  S
