geometry optimzed in LAMMPS
_audit_creation_date              2020-12-01 
_audit_creation_method            'lammps2cif' 
_symmetry_space_group_name_H-M    'P1' 
_symmetry_Int_Tables_number       1 
_symmetry_cell_setting            triclinic 
loop_ 
_symmetry_equiv_pos_as_xyz 
  x,y,z 
_cell_length_a                    59.9254888 
_cell_length_b                    71.78554790780395 
_cell_length_c                    49.17087106766784 
_cell_angle_alpha                 89.79912667479094 
_cell_angle_beta                  90.00016581340229 
_cell_angle_gamma                 90.04277783903805 
loop_ 
_atom_site_label 
_atom_site_type_symbol 
_atom_site_fract_x 
_atom_site_fract_y 
_atom_site_fract_z 
_atom_site_charge 
Zr1        Zr  0.35566749  0.52392614  0.62897345     2.17500
O2          O  0.37457974  0.54384205  0.66186642    -0.50600
O3          O  0.33084914  0.51796897  0.66748541    -0.73800
O4          O  0.34046987  0.55534291  0.63029819    -0.80600
O5          O  0.40698251  0.49257316  0.63036853    -0.82400
O6          O  0.31533199  0.55886717  0.59628905    -0.78000
O7          O  0.39090160  0.51723003  0.65145521    -0.89600
O8          O  0.30747186  0.49412219  0.65733261    -0.75600
O9          O  0.31910524  0.51708675  0.61327032    -0.85100
O10         O  0.35270435  0.49074718  0.62923654    -0.84800
O11         O  0.35448503  0.53789731  0.58434185    -0.71500
O12         O  0.38410604  0.51316850  0.59833342    -0.83600
Zr13       Zr  0.34183107  0.48603931  0.53734933     2.26400
Zr14       Zr  0.31771990  0.53062313  0.56884248     2.06300
Zr15       Zr  0.38059699  0.48007949  0.59802715     2.10000
Zr16       Zr  0.31642818  0.48395178  0.61208783     1.78800
O17         O  0.41926512  0.47124283  0.59004939    -0.92500
O18         O  0.27603687  0.48796172  0.61278288    -0.40300
O19         O  0.34427100  0.47214914  0.58175549    -0.76900
O20         O  0.31351147  0.49737329  0.56775149    -0.95600
O21         O  0.34508962  0.51914020  0.53784349    -0.88900
O22         O  0.37843670  0.49280969  0.55324022    -0.91700
C23         C  0.31468846  0.50685396  0.67318418     1.02000
C24         C  0.40707901  0.50580719  0.64779413     1.15000
C25         C  0.32601094  0.56497142  0.61713221     1.05700
O26         O  0.27838349  0.53432227  0.58003000    -0.93900
O27         O  0.29709897  0.52266438  0.52843974    -0.89600
O28         O  0.31188596  0.49699607  0.50824414    -0.82800
C29         C  0.29764564  0.51031229  0.50967283     1.12400
O30         O  0.40389804  0.55166473  0.57039651    -0.95900
Zr31       Zr  0.38163786  0.52576234  0.55338221     1.88900
O32         O  0.36265477  0.49340798  0.49604617    -0.72500
O33         O  0.31903161  0.55704607  0.53761840    -0.51800
O34         O  0.37571200  0.55400869  0.52670682    -0.96400
O35         O  0.42139745  0.51895691  0.55003894    -0.53700
O36         O  0.38623833  0.51710856  0.50600652    -0.73000
C37         C  0.37784023  0.50525844  0.48939645     0.99300
O38         O  0.31664165  0.46171813  0.52108927    -0.61800
O39         O  0.37802125  0.45509431  0.63154115    -0.56600
O40         O  0.36171097  0.45663967  0.53112805    -0.93300
O41         O  0.38486134  0.45386585  0.56753455    -0.91800
O42         O  0.32345537  0.45672992  0.64049723    -0.92100
O43         O  0.29454481  0.45768269  0.59562423    -0.90900
C44         C  0.37665628  0.44797041  0.54503816     1.18200
H45         H  0.35493783  0.48572915  0.64730730     0.34100
H46         H  0.29892492  0.49415645  0.56083659     0.45000
H47         H  0.38959612  0.48728117  0.54162497     0.38500
H48         H  0.35693516  0.55117779  0.58486768     0.35000
H49         H  0.27096044  0.48130839  0.62934685     0.26800
H50         H  0.30399286  0.56269914  0.53865319     0.32700
H51         H  0.36430030  0.55060709  0.51303143     0.38600
H52         H  0.33134767  0.44789410  0.62844596     0.33100
H53         H  0.37826819  0.44348028  0.62074627     0.31900
H54         H  0.42183823  0.46036259  0.60207947     0.33600
H55         H  0.42235552  0.50667378  0.54103881     0.32600
H56         H  0.30342800  0.45248740  0.58047440     0.36600
H57         H  0.32067502  0.45032946  0.53135912     0.29300
H58         H  0.36297040  0.54759151  0.67508306     0.33600
H59         H  0.41397460  0.55519283  0.55526989     0.36400
H60         H  0.39259337  0.45525757  0.64103005     0.29000
H61         H  0.30183246  0.46507699  0.52854596     0.41900
H62         H  0.27269380  0.54343126  0.56655055     0.31900
H63         H  0.27376752  0.50130619  0.61697437     0.39600
H64         H  0.42616808  0.51653391  0.56900472     0.31400
H65         H  0.32903818  0.56624004  0.54633318     0.31500
H66         H  0.37863182  0.55541368  0.65200080     0.31700
Zr67       Zr  0.35448261  0.74238137  0.65657317     2.17500
O68         O  0.36985084  0.72384447  0.61951872    -0.50600
O69         O  0.33104810  0.74926327  0.61724274    -0.73800
O70         O  0.34046305  0.71053122  0.65717098    -0.80600
O71         O  0.40347259  0.77607666  0.65160144    -0.82400
O72         O  0.31583224  0.70668614  0.69161185    -0.78000
O73         O  0.39077487  0.74816489  0.63649995    -0.89600
O74         O  0.30457550  0.77012600  0.62923169    -0.75600
O75         O  0.31802044  0.74827078  0.67328056    -0.85100
O76         O  0.35045408  0.77543119  0.65612174    -0.84800
O77         O  0.35454938  0.72861322  0.70137778    -0.71500
O78         O  0.38320469  0.75409565  0.68601489    -0.83600
Zr79       Zr  0.34155059  0.78043429  0.74814251     2.26400
Zr80       Zr  0.31794024  0.73530875  0.71816331     2.06300
Zr81       Zr  0.37843928  0.78712405  0.68638348     2.10000
Zr82       Zr  0.31426760  0.78130777  0.67395433     1.78800
O83         O  0.41722280  0.79625628  0.69283975    -0.92500
O84         O  0.27414545  0.77591703  0.67572933    -0.40300
O85         O  0.34221831  0.79406603  0.70350383    -0.76900
O86         O  0.31283677  0.76847818  0.71876055    -0.95600
O87         O  0.34580413  0.74742515  0.74795363    -0.88900
O88         O  0.37796002  0.77433928  0.73118284    -0.91700
C89         C  0.31351069  0.75892007  0.61222950     1.02000
C90         C  0.40523764  0.76131583  0.63720644     1.15000
C91         C  0.32646789  0.70063181  0.67071554     1.05700
O92         O  0.27854682  0.73079177  0.70806302    -0.93900
O93         O  0.29721872  0.74392216  0.75838355    -0.89600
O94         O  0.31152819  0.77011113  0.77749228    -0.82800
C95         C  0.29733443  0.75674157  0.77652030     1.12400
O96         O  0.40537885  0.71610815  0.71442710    -0.95900
Zr97       Zr  0.38213285  0.74150565  0.73103174     1.88900
O98         O  0.36159398  0.77219983  0.78939009    -0.72500
O99         O  0.32038603  0.70884441  0.74918140    -0.51800
O100        O  0.37827653  0.71349518  0.75875997    -0.96400
O101        O  0.42149558  0.75008759  0.73266754    -0.53700
O102        O  0.38640928  0.74959405  0.77849334    -0.73000
C103        C  0.37724530  0.76071754  0.79550971     0.99300
O104        O  0.31885308  0.80645521  0.76405328    -0.61800
O105        O  0.37290543  0.81273437  0.65446007    -0.56600
O106        O  0.36279133  0.80892013  0.75597875    -0.93300
O107        O  0.38333095  0.81292897  0.71761691    -0.91800
O108        O  0.31959413  0.80806363  0.64407282    -0.92100
O109        O  0.29274554  0.80798185  0.68955759    -0.90900
C110        C  0.37678909  0.81807324  0.74130830     1.18200
H111        H  0.35224377  0.78043699  0.63797376     0.34100
H112        H  0.29831877  0.77158936  0.72594732     0.45000
H113        H  0.38931252  0.77997125  0.74242596     0.38500
H114        H  0.35746639  0.71540215  0.70110389     0.35000
H115        H  0.26824343  0.78161869  0.65883344     0.26800
H116        H  0.32672636  0.71400783  0.76615984     0.32700
H117        H  0.36772836  0.70547848  0.74864749     0.38600
H118        H  0.30560223  0.80889716  0.63342363     0.33100
H119        H  0.37293795  0.82408519  0.66583788     0.31900
H120        H  0.42022829  0.80555900  0.67837868     0.33600
H121        H  0.42263530  0.75956190  0.74718216     0.32600
H122        H  0.30240460  0.81410271  0.70320301     0.36600
H123        H  0.32200809  0.81682458  0.75128175     0.29300
H124        H  0.35686631  0.71873482  0.60955820     0.33600
H125        H  0.41623212  0.71354857  0.72915974     0.36400
H126        H  0.38701724  0.81343330  0.64403566     0.29000
H127        H  0.30328245  0.80293830  0.75970226     0.41900
H128        H  0.27418209  0.71972176  0.71889296     0.31900
H129        H  0.27242723  0.76234201  0.67292085     0.39600
H130        H  0.42413331  0.75710250  0.71559123     0.31400
H131        H  0.30472411  0.70580672  0.75382723     0.31500
H132        H  0.37705227  0.71294475  0.62824094     0.31700
Zr133      Zr  0.44905761  0.52032117  0.15198367     2.17500
O134        O  0.42870110  0.54154627  0.12209644    -0.50600
O135        O  0.47174338  0.51285811  0.11186740    -0.73800
O136        O  0.46623875  0.55124257  0.14905118    -0.80600
O137        O  0.39822484  0.48805439  0.15189612    -0.82400
O138        O  0.49145193  0.55443632  0.18299189    -0.78000
O139        O  0.41388660  0.51259898  0.12984321    -0.89600
O140        O  0.49629872  0.49018064  0.12353380    -0.75600
O141        O  0.48571684  0.51286096  0.16689216    -0.85100
O142        O  0.45103652  0.48710857  0.15312403    -0.84800
O143        O  0.45184368  0.53452654  0.19625401    -0.71500
O144        O  0.42114866  0.51051013  0.18427098    -0.83600
Zr145      Zr  0.46436105  0.48316086  0.24536751     2.26400
Zr146      Zr  0.48869057  0.52656296  0.21096057     2.06300
Zr147      Zr  0.42402104  0.47735641  0.18604335     2.10000
Zr148      Zr  0.48746830  0.47974195  0.16899788     1.78800
O149        O  0.38509861  0.46897812  0.19358333    -0.92500
O150        O  0.52793316  0.48290341  0.16719469    -0.40300
O151        O  0.46038355  0.46901060  0.20136471    -0.76900
O152        O  0.49198018  0.49325255  0.21282737    -0.95600
O153        O  0.46186580  0.51631741  0.24373202    -0.88900
O154        O  0.42760224  0.49057395  0.23033359    -0.91700
C155        C  0.48841130  0.50213033  0.10670715     1.02000
C156        C  0.39802925  0.50081698  0.13366176     1.15000
C157        C  0.48106251  0.56065845  0.16202524     1.05700
O158        O  0.52725040  0.53210793  0.19761819    -0.93900
O159        O  0.51288888  0.51752931  0.24775364    -0.89600
O160        O  0.49800222  0.49278856  0.27011836    -0.82800
C161        C  0.51338050  0.50511067  0.26650167     1.12400
O162        O  0.40183833  0.54917330  0.21316436    -0.95900
Zr163      Zr  0.42518238  0.52348926  0.22881912     1.88900
O164        O  0.44620133  0.49302023  0.28729182    -0.72500
O165        O  0.48841927  0.55226089  0.24321653    -0.51800
O166        O  0.43331507  0.55238574  0.25270185    -0.96400
O167        O  0.38553645  0.51649689  0.23376703    -0.53700
O168        O  0.42196550  0.51629756  0.27701582    -0.73000
C169        C  0.43127538  0.50504733  0.29390023     0.99300
O170        O  0.48579521  0.45716636  0.26426614    -0.61800
O171        O  0.42920897  0.45077181  0.15605105    -0.56600
O172        O  0.44168688  0.45499534  0.25337528    -0.93300
O173        O  0.41764723  0.45232640  0.21788182    -0.91800
O174        O  0.47997154  0.45267399  0.14072435    -0.92100
O175        O  0.50707330  0.45251905  0.18654924    -0.90900
C176        C  0.42580098  0.44666318  0.24051817     1.18200
H177        H  0.44812502  0.48184778  0.13541260     0.34100
H178        H  0.50668921  0.48954338  0.21870944     0.45000
H179        H  0.41643196  0.48561286  0.24253739     0.38500
H180        H  0.44987570  0.54785323  0.19529941     0.35000
H181        H  0.53272867  0.47417164  0.15278557     0.26800
H182        H  0.50426375  0.55601201  0.24488593     0.32700
H183        H  0.44483887  0.54902786  0.26628645     0.38600
H184        H  0.49292680  0.45192164  0.12827526     0.33100
H185        H  0.43763144  0.44162433  0.16713011     0.31900
H186        H  0.38207578  0.45864046  0.18081427     0.33600
H187        H  0.38418110  0.50970702  0.25124583     0.32600
H188        H  0.49805895  0.44827628  0.20227122     0.36600
H189        H  0.48174905  0.44620978  0.25313604     0.29300
H190        H  0.43947754  0.54538962  0.10787886     0.33600
H191        H  0.39319737  0.55315267  0.22929653     0.36400
H192        H  0.41416228  0.44522953  0.15416831     0.29000
H193        H  0.50152171  0.45953389  0.25913117     0.41900
H194        H  0.53413133  0.51958069  0.19719564     0.31900
H195        H  0.53056245  0.49542167  0.15930610     0.39600
H196        H  0.38246800  0.50696282  0.21974949     0.31400
H197        H  0.48120936  0.56275269  0.23350367     0.31500
H198        H  0.42583951  0.55290492  0.13292365     0.31700
Zr199      Zr  0.45215020  0.73942162  0.13024203     2.17500
O200        O  0.43433957  0.72021821  0.16509039    -0.50600
O201        O  0.47650934  0.74607540  0.16886529    -0.73800
O202        O  0.46646240  0.70734297  0.13059543    -0.80600
O203        O  0.40302531  0.77377060  0.13361309    -0.82400
O204        O  0.49167521  0.70458753  0.09653870    -0.78000
O205        O  0.41679948  0.74702850  0.15193471    -0.89600
O206        O  0.50073157  0.76907331  0.15788796    -0.75600
O207        O  0.48869395  0.74628191  0.11435518    -0.85100
O208        O  0.45547839  0.77257810  0.12961230    -0.84800
O209        O  0.45290767  0.72564415  0.08563652    -0.71500
O210        O  0.42378720  0.75062581  0.09962835    -0.83600
Zr211      Zr  0.46639158  0.77738430  0.03752553     2.26400
Zr212      Zr  0.48965978  0.73301962  0.06995000     2.06300
Zr213      Zr  0.42795736  0.78368671  0.09819820     2.10000
Zr214      Zr  0.49170129  0.77940121  0.11260747     1.78800
O215        O  0.38883497  0.78953710  0.08787913    -0.92500
O216        O  0.53211501  0.77562530  0.11287446    -0.40300
O217        O  0.46427450  0.79131698  0.08175644    -0.76900
O218        O  0.49454618  0.76614055  0.06829904    -0.95600
O219        O  0.46232171  0.74433408  0.03871952    -0.88900
O220        O  0.42977519  0.77081265  0.05370604    -0.91700
C221        C  0.49297859  0.75688296  0.17440243     1.02000
C222        C  0.40193151  0.75982789  0.14983322     1.15000
C223        C  0.48088517  0.69795027  0.11690780     1.05700
O224        O  0.52860478  0.72931202  0.08292994    -0.93900
O225        O  0.51074652  0.74061989  0.03004514    -0.89600
O226        O  0.49708088  0.76645576  0.00913593    -0.82800
C227        C  0.51095564  0.75285954  0.01107966     1.12400
O228        O  0.39884281  0.71563645  0.07292007    -0.95900
Zr229      Zr  0.42578254  0.73793926  0.05479636     1.88900
O230        O  0.44618851  0.76880082  0.99671565    -0.72500
O231        O  0.49034956  0.70697776  0.03830083    -0.51800
O232        O  0.43176779  0.70729171  0.03494909    -0.96400
O233        O  0.38682570  0.74633084  0.04714617    -0.53700
O234        O  0.42342532  0.74436962  0.00636643    -0.73000
C235        C  0.43182787  0.75638466  0.98988623     0.99300
O236        O  0.49039399  0.80189614  0.01908341    -0.61800
O237        O  0.43068647  0.81036685  0.12851764    -0.56600
O238        O  0.44557968  0.80650771  0.03056871    -0.93300
O239        O  0.42339855  0.80983954  0.06772936    -0.91800
O240        O  0.48382200  0.80631748  0.14102755    -0.92100
O241        O  0.51235258  0.80665756  0.09701243    -0.90900
C242        C  0.43095144  0.81539119  0.04468697     1.18200
H243        H  0.45326202  0.77765224  0.14757601     0.34100
H244        H  0.50918473  0.76923719  0.06142377     0.45000
H245        H  0.41861134  0.77632883  0.04203083     0.38500
H246        H  0.45026686  0.71239097  0.08602314     0.35000
H247        H  0.53736356  0.78330556  0.12829924     0.26800
H248        H  0.50522266  0.70123001  0.04083509     0.32700
H249        H  0.44326318  0.70930788  0.02078388     0.38600
H250        H  0.49777893  0.80846342  0.15133722     0.33100
H251        H  0.41672123  0.81742144  0.12541544     0.31900
H252        H  0.38501610  0.80093068  0.09816343     0.33600
H253        H  0.38697966  0.75561691  0.03221756     0.32600
H254        H  0.51170210  0.80598949  0.07692416     0.36600
H255        H  0.48630579  0.81338576  0.02895867     0.29300
H256        H  0.44661368  0.71561302  0.17679283     0.33600
H257        H  0.39146669  0.71006272  0.05686292     0.36400
H258        H  0.42901356  0.80514597  0.14706569     0.29000
H259        H  0.50551634  0.79900004  0.02602816     0.41900
H260        H  0.53572722  0.74130448  0.07799688     0.31900
H261        H  0.53454455  0.76262726  0.11896879     0.39600
H262        H  0.38254699  0.75353550  0.06346544     0.31400
H263        H  0.47970216  0.69774689  0.04579868     0.31500
H264        H  0.42865410  0.70904989  0.15555603     0.31700
Zr265      Zr  0.09337273  0.52729666  0.28419065     2.17500
O266        O  0.07077371  0.54886745  0.25744817    -0.50600
O267        O  0.11402664  0.51838437  0.24379246    -0.73800
O268        O  0.11184556  0.55755603  0.27687890    -0.80600
O269        O  0.04590680  0.49196861  0.28373061    -0.82400
O270        O  0.13676995  0.56120983  0.31119535    -0.78000
O271        O  0.05876166  0.51796723  0.26250421    -0.89600
O272        O  0.14007886  0.49689152  0.25496812    -0.75600
O273        O  0.13031159  0.52180590  0.29972210    -0.85100
O274        O  0.09752568  0.49419346  0.28685419    -0.84800
O275        O  0.09502184  0.54259531  0.32746935    -0.71500
O276        O  0.06596709  0.51609043  0.31586252    -0.83600
Zr277      Zr  0.10981805  0.49322372  0.37918962     2.26400
Zr278      Zr  0.13186127  0.53617064  0.34344408     2.06300
Zr279      Zr  0.07118093  0.48318554  0.31985093     2.10000
Zr280      Zr  0.13435702  0.48890444  0.30262231     1.78800
O281        O  0.03332983  0.47625823  0.33481348    -0.92500
O282        O  0.17416494  0.49535800  0.29886439    -0.40300
O283        O  0.10817932  0.47765286  0.33584662    -0.76900
O284        O  0.13753980  0.50313604  0.34645615    -0.95600
O285        O  0.10478490  0.52603535  0.37601603    -0.88900
O286        O  0.07274161  0.49796227  0.36327818    -0.91700
C287        C  0.13041331  0.50767658  0.23774420     1.02000
C288        C  0.04424399  0.50500266  0.26592006     1.15000
C289        C  0.12748200  0.56658490  0.28906054     1.05700
O290        O  0.17101289  0.54291506  0.33480677    -0.93900
O291        O  0.15562322  0.53031923  0.38195140    -0.89600
O292        O  0.14461314  0.50294032  0.40070549    -0.82800
C293        C  0.15806118  0.51681168  0.39872524     1.12400
O294        O  0.04469583  0.55517388  0.33932055    -0.95900
Zr295      Zr  0.06796853  0.53078730  0.35906874     1.88900
O296        O  0.08868013  0.50334697  0.41925850    -0.72500
O297        O  0.12670064  0.56442903  0.36995073    -0.51800
O298        O  0.07096971  0.56018778  0.38338007    -0.96400
O299        O  0.02866129  0.52195810  0.36070296    -0.53700
O300        O  0.06248390  0.52437793  0.40667295    -0.73000
C301        C  0.07224569  0.51427732  0.42454131     0.99300
O302        O  0.12403905  0.47093309  0.41253719    -0.61800
O303        O  0.07153083  0.45666891  0.28904511    -0.56600
O304        O  0.09643473  0.46127104  0.38348351    -0.93300
O305        O  0.07212121  0.45580976  0.34918929    -0.91800
O306        O  0.12669389  0.46006770  0.27837565    -0.92100
O307        O  0.15790274  0.46347945  0.31862736    -0.90900
C308        C  0.08262673  0.45074052  0.37076048     1.18200
H309        H  0.09496451  0.48841126  0.26943737     0.34100
H310        H  0.15251334  0.50029971  0.35235099     0.45000
H311        H  0.06195260  0.49249749  0.37553466     0.38500
H312        H  0.09280583  0.55584557  0.32538609     0.35000
H313        H  0.17938007  0.48740519  0.28372854     0.26800
H314        H  0.12459388  0.56003675  0.38888468     0.32700
H315        H  0.08246048  0.55799459  0.39749439     0.38600
H316        H  0.13943096  0.45857390  0.26574282     0.33100
H317        H  0.08400134  0.44877279  0.29550660     0.31900
H318        H  0.02821068  0.46612580  0.32270966     0.33600
H319        H  0.02736740  0.51317376  0.37618593     0.32600
H320        H  0.16056069  0.46621778  0.33808220     0.36600
H321        H  0.13968137  0.46828359  0.40734662     0.29300
H322        H  0.08016919  0.55258070  0.24177006     0.33600
H323        H  0.03336611  0.55809944  0.35332712     0.36400
H324        H  0.05793292  0.44949605  0.29371250     0.29000
H325        H  0.12497076  0.47777032  0.42995908     0.41900
H326        H  0.17765707  0.53069550  0.33026726     0.31900
H327        H  0.17499365  0.50819183  0.29149969     0.39600
H328        H  0.02633072  0.51414921  0.34439109     0.31400
H329        H  0.14158388  0.57042804  0.37000436     0.31500
H330        H  0.06933711  0.56022992  0.26867258     0.31700
Zr331      Zr  0.09223404  0.23434810  0.49995239     2.17500
O332        O  0.07139226  0.21055575  0.52480563    -0.50600
O333        O  0.11084396  0.24332875  0.54197914    -0.73800
O334        O  0.11290434  0.20491535  0.50543502    -0.80600
O335        O  0.04088796  0.26621362  0.49955925    -0.82400
O336        O  0.13994311  0.20424987  0.47326411    -0.78000
O337        O  0.05642612  0.24137083  0.52123761    -0.89600
O338        O  0.13233718  0.26874635  0.53369823    -0.75600
O339        O  0.12906120  0.24331972  0.48744777    -0.85100
O340        O  0.09279239  0.26760991  0.49895634    -0.84800
O341        O  0.09782685  0.22078876  0.45587452    -0.71500
O342        O  0.06506453  0.24391597  0.46674404    -0.83600
Zr343      Zr  0.10884905  0.27287059  0.40801373     2.26400
Zr344      Zr  0.13458804  0.23058328  0.44318859     2.06300
Zr345      Zr  0.06642464  0.27724322  0.46518213     2.10000
Zr346      Zr  0.12948095  0.27641139  0.48589646     1.78800
O347        O  0.03033021  0.28076826  0.44301149    -0.92500
O348        O  0.16918034  0.27178251  0.49420074    -0.40300
O349        O  0.10321861  0.28615553  0.45226665    -0.76900
O350        O  0.13639729  0.26393868  0.44156092    -0.95600
O351        O  0.10811730  0.23971136  0.40914728    -0.88900
O352        O  0.07188663  0.26435687  0.42087747    -0.91700
C353        C  0.12439791  0.25617510  0.54954272     1.02000
C354        C  0.04069908  0.25332055  0.51767053     1.15000
C355        C  0.12973468  0.19716459  0.49374495     1.05700
O356        O  0.17357533  0.23026932  0.45722665    -0.93900
O357        O  0.15762024  0.23826448  0.40470233    -0.89600
O358        O  0.14490162  0.26552479  0.38705605    -0.82800
C359        C  0.15905131  0.25207852  0.38826719     1.12400
O360        O  0.04914232  0.20447400  0.43713553    -0.95900
Zr361      Zr  0.07141936  0.23113677  0.42257620     1.88900
O362        O  0.08811389  0.26435659  0.36649803    -0.72500
O363        O  0.13750631  0.20257410  0.41556755    -0.51800
O364        O  0.08327944  0.20307729  0.39888057    -0.96400
O365        O  0.03151281  0.23547044  0.41518051    -0.53700
O366        O  0.06772457  0.23835427  0.37490427    -0.73000
C367        C  0.07467312  0.25128959  0.35907188     0.99300
O368        O  0.12187729  0.29712081  0.37693232    -0.61800
O369        O  0.05797875  0.30086841  0.49915163    -0.56600
O370        O  0.09520524  0.30497895  0.41046320    -0.93300
O371        O  0.06942948  0.30784084  0.44390768    -0.91800
O372        O  0.11896540  0.30535349  0.50826415    -0.92100
O373        O  0.15200708  0.30280588  0.47107792    -0.90900
C374        C  0.08118579  0.31462548  0.42439353     1.18200
H375        H  0.08881975  0.27266904  0.51644715     0.34100
H376        H  0.15115259  0.26807536  0.43646942     0.45000
H377        H  0.06104831  0.26928570  0.40824069     0.38500
H378        H  0.09696077  0.20737813  0.45686329     0.35000
H379        H  0.17291168  0.28057815  0.50899418     0.26800
H380        H  0.15272993  0.19779448  0.41913289     0.32700
H381        H  0.07218408  0.20129669  0.38419618     0.38600
H382        H  0.11066647  0.30152410  0.52477249     0.33100
H383        H  0.07109630  0.30925830  0.49916651     0.31900
H384        H  0.02335249  0.29156122  0.45214981     0.33600
H385        H  0.03022841  0.24671043  0.40356741     0.32600
H386        H  0.14908561  0.30383561  0.45130571     0.36600
H387        H  0.13673083  0.30095489  0.38375283     0.29300
H388        H  0.08110703  0.20663771  0.54008002     0.33600
H389        H  0.04189985  0.19970018  0.42044802     0.36400
H390        H  0.04577739  0.30839878  0.49116294     0.29000
H391        H  0.12479044  0.29086337  0.35937547     0.41900
H392        H  0.17929649  0.24284905  0.45271616     0.31900
H393        H  0.17021765  0.25932353  0.50281083     0.39600
H394        H  0.02563385  0.23941336  0.43307534     0.31400
H395        H  0.12745788  0.19337326  0.42429671     0.31500
H396        H  0.07063373  0.19965411  0.51255395     0.31700
Zr397      Zr  0.21515608  0.52954895  0.99271496     2.17500
O398        O  0.23804162  0.55382984  0.01327586    -0.50600
O399        O  0.19758075  0.51977567  0.03473704    -0.73800
O400        O  0.19329417  0.55788460  0.00264405    -0.80600
O401        O  0.26192410  0.49351450  0.99365693    -0.82400
O402        O  0.16940508  0.56206098  0.96735438    -0.78000
O403        O  0.24901585  0.51915241  0.01550597    -0.89600
O404        O  0.17261331  0.49707990  0.02482397    -0.75600
O405        O  0.17801060  0.52290808  0.97885686    -0.85100
O406        O  0.21220851  0.49637411  0.99002212    -0.84800
O407        O  0.21100582  0.54487751  0.94962484    -0.71500
O408        O  0.24208709  0.51937268  0.95973026    -0.83600
Zr409      Zr  0.19736074  0.49469860  0.89871961     2.26400
Zr410      Zr  0.17408244  0.53708047  0.93514664     2.06300
Zr411      Zr  0.23799463  0.48622418  0.95602676     2.10000
Zr412      Zr  0.17512785  0.48998831  0.97639747     1.78800
O413        O  0.27548701  0.48251916  0.93774667    -0.92500
O414        O  0.13569698  0.49646336  0.98406783    -0.40300
O415        O  0.20080673  0.47948414  0.94222263    -0.76900
O416        O  0.17014263  0.50387852  0.93247873    -0.95600
O417        O  0.20044484  0.52776978  0.90122891    -0.88900
O418        O  0.23452877  0.50113888  0.91283454    -0.91700
C419        C  0.18238075  0.50809337  0.04160844     1.02000
C420        C  0.26316090  0.50586444  0.01230450     1.15000
C421        C  0.17762200  0.56690220  0.99033506     1.05700
O422        O  0.13507059  0.54134137  0.94741190    -0.93900
O423        O  0.14897936  0.52996711  0.89853408    -0.89600
O424        O  0.16160747  0.50342108  0.87879410    -0.82800
C425        C  0.14717729  0.51644230  0.88180039     1.12400
O426        O  0.26286247  0.55798706  0.93349142    -0.95900
Zr427      Zr  0.23730912  0.53423409  0.91660110     1.88900
O428        O  0.21965237  0.50355593  0.85871143    -0.72500
O429        O  0.17519734  0.56493753  0.90675804    -0.51800
O430        O  0.22828129  0.56464461  0.89735125    -0.96400
O431        O  0.27666389  0.52820638  0.90738428    -0.53700
O432        O  0.24060367  0.52887706  0.86868795    -0.73000
C433        C  0.23386781  0.51629362  0.85233302     0.99300
O434        O  0.18445669  0.47365543  0.86306710    -0.61800
O435        O  0.24186158  0.45969627  0.98670607    -0.56600
O436        O  0.20822643  0.46182066  0.89868593    -0.93300
O437        O  0.23570798  0.45754791  0.92964330    -0.91800
O438        O  0.18276492  0.45982723  0.99728443    -0.92100
O439        O  0.15013638  0.46539143  0.96116649    -0.90900
C440        C  0.22290423  0.45156965  0.91059902     1.18200
H441        H  0.21556635  0.49050860  0.00726261     0.34100
H442        H  0.15520708  0.50034648  0.92732544     0.45000
H443        H  0.24532284  0.49609957  0.90027403     0.38500
H444        H  0.21257387  0.55819249  0.95173787     0.35000
H445        H  0.13548299  0.50814610  0.99470017     0.26800
H446        H  0.16013301  0.57044746  0.90860864     0.32700
H447        H  0.22088038  0.56195097  0.87979959     0.38600
H448        H  0.18427826  0.46231838  0.01698413     0.33100
H449        H  0.22817585  0.45221366  0.98389603     0.31900
H450        H  0.28214353  0.47235412  0.94871646     0.33600
H451        H  0.27690548  0.51780812  0.89422106     0.32600
H452        H  0.15687113  0.46089610  0.94401070     0.36600
H453        H  0.16927131  0.46959860  0.86841520     0.29300
H454        H  0.23020948  0.55739729  0.03020820     0.33600
H455        H  0.26948125  0.56384529  0.91709725     0.36400
H456        H  0.25402341  0.45207410  0.97888859     0.29000
H457        H  0.18233370  0.48144369  0.84660424     0.41900
H458        H  0.13419477  0.53779458  0.96685600     0.31900
H459        H  0.12966711  0.50004027  0.96604814     0.39600
H460        H  0.28246325  0.52267138  0.92444186     0.31400
H461        H  0.18513468  0.57366436  0.91653980     0.31500
H462        H  0.23657131  0.56476598  0.00107352     0.31700
Zr463      Zr  0.21819321  0.23394276  0.78801913     2.17500
O464        O  0.23956801  0.21072671  0.76295093    -0.50600
O465        O  0.19821246  0.24419096  0.74758108    -0.73800
O466        O  0.19701700  0.20506698  0.78071189    -0.80600
O467        O  0.26984091  0.26482635  0.78822876    -0.82400
O468        O  0.17243265  0.20240392  0.81560804    -0.78000
O469        O  0.25268229  0.24149938  0.76489030    -0.89600
O470        O  0.17456197  0.26737805  0.75936564    -0.75600
O471        O  0.18192378  0.24148399  0.80394748    -0.85100
O472        O  0.21711130  0.26718705  0.79052373    -0.84800
O473        O  0.21548409  0.21863878  0.83138982    -0.71500
O474        O  0.24658426  0.24342063  0.81947255    -0.83600
Zr475      Zr  0.20592072  0.26931633  0.88249278     2.26400
Zr476      Zr  0.17942429  0.22719870  0.84781259     2.06300
Zr477      Zr  0.24486819  0.27664949  0.82276446     2.10000
Zr478      Zr  0.18087054  0.27450955  0.80677399     1.78800
O479        O  0.28188081  0.28195454  0.84176810    -0.92500
O480        O  0.14084199  0.26900125  0.80370731    -0.40300
O481        O  0.20850694  0.28422688  0.83882668    -0.76900
O482        O  0.17705950  0.26049485  0.85061410    -0.95600
O483        O  0.20743098  0.23615835  0.87989799    -0.88900
O484        O  0.24239852  0.26201458  0.86641958    -0.91700
C485        C  0.18289968  0.25610849  0.74197601     1.02000
C486        C  0.26914251  0.25248965  0.76940731     1.15000
C487        C  0.18100348  0.19669205  0.79323419     1.05700
O488        O  0.13987013  0.22160860  0.84010388    -0.93900
O489        O  0.15606736  0.23552409  0.88576053    -0.89600
O490        O  0.17077846  0.26151057  0.90485884    -0.82800
C491        C  0.15561503  0.24891816  0.90289645     1.12400
O492        O  0.26296369  0.20182478  0.84428810    -0.95900
Zr493      Zr  0.24349436  0.22877220  0.86282602     1.88900
O494        O  0.23037889  0.26077251  0.92071887    -0.72500
O495        O  0.18258104  0.19940282  0.87607977    -0.51800
O496        O  0.23491219  0.20100360  0.88957322    -0.96400
O497        O  0.28395211  0.23241270  0.86305190    -0.53700
O498        O  0.25216679  0.23624687  0.90921089    -0.73000
C499        C  0.24557489  0.24861053  0.92603859     0.99300
O500        O  0.19086211  0.28760075  0.91998579    -0.61800
O501        O  0.25063711  0.30052202  0.78816367    -0.56600
O502        O  0.21674513  0.30239517  0.87997799    -0.93300
O503        O  0.24110743  0.30693648  0.84538832    -0.91800
O504        O  0.18796858  0.30380670  0.78312320    -0.92100
O505        O  0.15920577  0.30054070  0.82421112    -0.90900
C506        C  0.22937386  0.31302844  0.86543125     1.18200
H507        H  0.21997654  0.27276221  0.77295621     0.34100
H508        H  0.16246777  0.26441633  0.85655171     0.45000
H509        H  0.25394461  0.26685523  0.87813044     0.38500
H510        H  0.21659566  0.20529307  0.82929148     0.35000
H511        H  0.13559824  0.27769929  0.78940338     0.26800
H512        H  0.16731172  0.19412519  0.87638860     0.32700
H513        H  0.22546570  0.20542301  0.90475714     0.38600
H514        H  0.19581339  0.30034619  0.76616110     0.33100
H515        H  0.23647964  0.30761490  0.78776042     0.31900
H516        H  0.29056198  0.28758272  0.82670072     0.33600
H517        H  0.28673879  0.24395294  0.87348188     0.32600
H518        H  0.16257448  0.30077677  0.84392380     0.36600
H519        H  0.20381901  0.29380299  0.92857585     0.29300
H520        H  0.23026760  0.20733787  0.74707094     0.33600
H521        H  0.27125290  0.19630840  0.85976157     0.36400
H522        H  0.26162872  0.30921597  0.79618880     0.29000
H523        H  0.18218953  0.29777209  0.91138608     0.41900
H524        H  0.13371933  0.23396008  0.83517753     0.31900
H525        H  0.13946491  0.25652563  0.79534974     0.39600
H526        H  0.28784273  0.23574758  0.84407481     0.31400
H527        H  0.19131644  0.19049436  0.86504691     0.31500
H528        H  0.23973719  0.19948119  0.77467194     0.31700
Zr529      Zr  0.35933314  0.23785783  0.15595524     2.17500
O530        O  0.38125871  0.21587122  0.12927695    -0.50600
O531        O  0.33674141  0.24364182  0.11569522    -0.73800
O532        O  0.34223219  0.20700626  0.15335099    -0.80600
O533        O  0.40599364  0.27361497  0.14927356    -0.82400
O534        O  0.31697325  0.20431735  0.18736638    -0.78000
O535        O  0.39276643  0.24677302  0.13107124    -0.89600
O536        O  0.31332174  0.26779133  0.12399220    -0.75600
O537        O  0.32238599  0.24417029  0.17069373    -0.85100
O538        O  0.35503134  0.27091245  0.15500146    -0.84800
O539        O  0.35759574  0.22457094  0.20093716    -0.71500
O540        O  0.38708998  0.24990483  0.18645100    -0.83600
Zr541      Zr  0.34262064  0.27675991  0.24624464     2.26400
Zr542      Zr  0.32052267  0.23163295  0.21563661     2.06300
Zr543      Zr  0.38198499  0.28289094  0.18619724     2.10000
Zr544      Zr  0.31829321  0.27713042  0.17060015     1.78800
O545        O  0.42038028  0.28830688  0.20030966    -0.92500
O546        O  0.27905549  0.26875570  0.16598192    -0.40300
O547        O  0.34512644  0.28998540  0.20135232    -0.76900
O548        O  0.31505166  0.26469912  0.21543081    -0.95600
O549        O  0.34728636  0.24376006  0.24684825    -0.88900
O550        O  0.37968077  0.27063607  0.23121096    -0.91700
C551        C  0.32135856  0.25510159  0.10862876     1.02000
C552        C  0.40704319  0.26009555  0.13235805     1.15000
C553        C  0.32703312  0.19800351  0.16633819     1.05700
O554        O  0.28146117  0.22596807  0.20488427    -0.93900
O555        O  0.29739446  0.23951675  0.25383995    -0.89600
O556        O  0.31091116  0.26590717  0.27331247    -0.82800
C557        C  0.29661871  0.25258130  0.27148049     1.12400
O558        O  0.40736152  0.21221906  0.21539691    -0.95900
Zr559      Zr  0.38426013  0.23780616  0.23171005     1.88900
O560        O  0.36271705  0.26961593  0.28795851    -0.72500
O561        O  0.32328518  0.20520483  0.24664053    -0.51800
O562        O  0.38064645  0.21013964  0.26022162    -0.96400
O563        O  0.42379939  0.24573073  0.23357108    -0.53700
O564        O  0.38835676  0.24728534  0.27885048    -0.73000
C565        C  0.37867001  0.25868772  0.29508394     0.99300
O566        O  0.31876123  0.30156474  0.26396913    -0.61800
O567        O  0.38191988  0.30846471  0.15349962    -0.56600
O568        O  0.36237030  0.30644273  0.25174774    -0.93300
O569        O  0.38361661  0.31063746  0.21394099    -0.91800
O570        O  0.32320065  0.30576470  0.14457840    -0.92100
O571        O  0.29399141  0.30188825  0.18687534    -0.90900
C572        C  0.37597940  0.31601326  0.23700419     1.18200
H573        H  0.35745849  0.27588743  0.13694968     0.34100
H574        H  0.30023740  0.26778271  0.22167945     0.45000
H575        H  0.39054839  0.27656857  0.24283308     0.38500
H576        H  0.36000109  0.21127686  0.20046735     0.35000
H577        H  0.27324173  0.27716896  0.15164409     0.26800
H578        H  0.30933426  0.19808631  0.24373278     0.32700
H579        H  0.36804836  0.21287329  0.27260421     0.38600
H580        H  0.30959690  0.30673472  0.13322758     0.33100
H581        H  0.36961024  0.31668418  0.15945851     0.31900
H582        H  0.42503647  0.29964740  0.19029845     0.33600
H583        H  0.42495315  0.25576032  0.24726151     0.32600
H584        H  0.30043709  0.30553576  0.20461732     0.36600
H585        H  0.32192726  0.31266132  0.25260564     0.29300
H586        H  0.37117226  0.21136594  0.11475922     0.33600
H587        H  0.41765144  0.20918238  0.23053122     0.36400
H588        H  0.39567879  0.31558722  0.15751863     0.29000
H589        H  0.30335894  0.29816820  0.25862435     0.41900
H590        H  0.27499525  0.23852573  0.20221824     0.31900
H591        H  0.27914934  0.25629798  0.15739400     0.39600
H592        H  0.42692994  0.25196611  0.21599192     0.31400
H593        H  0.33515482  0.19724052  0.23888848     0.31500
H594        H  0.38379868  0.20496504  0.14126644     0.31700
Zr595      Zr  0.35064791  0.02229686  0.13355593     2.17500
O596        O  0.36451167  0.04160714  0.17071715    -0.50600
O597        O  0.32587689  0.01528994  0.17181207    -0.73800
O598        O  0.33599268  0.05381480  0.13151494    -0.80600
O599        O  0.39781808  0.98775658  0.14617869    -0.82400
O600        O  0.31281754  0.05692088  0.09537536    -0.78000
O601        O  0.38676728  0.01734475  0.15502111    -0.89600
O602        O  0.30148565  0.99278930  0.15946483    -0.75600
O603        O  0.31504912  0.01608060  0.11415966    -0.85100
O604        O  0.34631860  0.98931034  0.13504373    -0.84800
O605        O  0.35267864  0.03533969  0.08823147    -0.71500
O606        O  0.38072122  0.01032515  0.10650810    -0.83600
Zr607      Zr  0.34240907  0.98282008  0.04240767     2.26400
Zr608      Zr  0.31696978  0.02836217  0.06888474     2.06300
Zr609      Zr  0.37593841  0.97732525  0.10774880     2.10000
Zr610      Zr  0.31123341  0.98304099  0.11417421     1.78800
O611        O  0.41532703  0.96904166  0.10678634    -0.92500
O612        O  0.27178345  0.99102590  0.11119567    -0.40300
O613        O  0.34085887  0.97003560  0.08759445    -0.76900
O614        O  0.31210283  0.99515866  0.06907436    -0.95600
O615        O  0.34632778  0.01588394  0.04146739    -0.88900
O616        O  0.37771701  0.98929193  0.06228170    -0.91700
C617        C  0.30908732  0.00461936  0.17652752     1.02000
C618        C  0.40004598  0.00348348  0.15813209     1.15000
C619        C  0.32240071  0.06328600  0.11681809     1.05700
O620        O  0.27708084  0.03361992  0.07429421    -0.93900
O621        O  0.29807012  0.01913543  0.02744792    -0.89600
O622        O  0.31234848  0.99178332  0.01184321    -0.82800
C623        C  0.29849674  0.00542109  0.01072554     1.12400
O624        O  0.40587671  0.04571458  0.08099360    -0.95900
Zr625      Zr  0.38174950  0.02215370  0.06082397     1.88900
O626        O  0.36365514  0.99153172  0.00197180    -0.72500
O627        O  0.32080037  0.05442789  0.03736652    -0.51800
O628        O  0.37905762  0.05210315  0.03757783    -0.96400
O629        O  0.42062164  0.01226681  0.05828993    -0.53700
O630        O  0.38684270  0.01537241  0.01245896    -0.73000
C631        C  0.37847621  0.00372242  0.99543004     0.99300
O632        O  0.32157763  0.95642610  0.02395579    -0.61800
O633        O  0.36674190  0.95192212  0.13882683    -0.56600
O634        O  0.36479306  0.95433178  0.03883314    -0.93300
O635        O  0.38284518  0.95066564  0.07902499    -0.91800
O636        O  0.31145357  0.95434598  0.14075739    -0.92100
O637        O  0.28988881  0.95746062  0.09474647    -0.90900
C638        C  0.37767765  0.94518351  0.05504117     1.18200
H639        H  0.34714698  0.98458596  0.15344388     0.34100
H640        H  0.29793893  0.99184536  0.06107949     0.45000
H641        H  0.38960631  0.98346073  0.05215568     0.38500
H642        H  0.35541473  0.04858675  0.08844773     0.35000
H643        H  0.26419878  0.98200881  0.12336636     0.26800
H644        H  0.30724797  0.06205145  0.04027556     0.32700
H645        H  0.37027477  0.04958159  0.02093505     0.38600
H646        H  0.32100009  0.95703229  0.15669356     0.33100
H647        H  0.36808321  0.94044020  0.12785836     0.31900
H648        H  0.41665598  0.95827120  0.11932108     0.33600
H649        H  0.42146595  0.00382226  0.04244966     0.32600
H650        H  0.29905555  0.95305520  0.07930933     0.36600
H651        H  0.32537588  0.94557697  0.03553852     0.29300
H652        H  0.35116230  0.04697010  0.17960564     0.33600
H653        H  0.41758627  0.04825234  0.06726488     0.36400
H654        H  0.37945491  0.95135382  0.15165723     0.29000
H655        H  0.30582010  0.95892843  0.02871341     0.41900
H656        H  0.27476969  0.03456537  0.09417597     0.31900
H657        H  0.27043773  0.00310291  0.12071516     0.39600
H658        H  0.42267753  0.00401451  0.07427336     0.31400
H659        H  0.33311507  0.06204173  0.04486075     0.31500
H660        H  0.37210942  0.05231266  0.16196374     0.31700
Zr661      Zr  0.45490236  0.24091713  0.63056733     2.17500
O662        O  0.43883701  0.22097625  0.66582640    -0.50600
O663        O  0.47990031  0.24739694  0.66896557    -0.73800
O664        O  0.47025078  0.20949212  0.63001027    -0.80600
O665        O  0.40537743  0.27392499  0.63839630    -0.82400
O666        O  0.49363850  0.20660301  0.59412714    -0.78000
O667        O  0.41898365  0.24581863  0.65175512    -0.89600
O668        O  0.50534225  0.26909108  0.65628818    -0.75600
O669        O  0.49075583  0.24808885  0.61303788    -0.85100
O670        O  0.45773912  0.27407931  0.63173725    -0.84800
O671        O  0.45409187  0.22784752  0.58547330    -0.71500
O672        O  0.42543699  0.25240138  0.60183848    -0.83600
Zr673      Zr  0.46539767  0.28064088  0.53946815     2.26400
Zr674      Zr  0.49024529  0.23550959  0.56816708     2.06300
Zr675      Zr  0.42890115  0.28552925  0.60232747     2.10000
Zr676      Zr  0.49336036  0.28124832  0.61303996     1.78800
O677        O  0.38950090  0.29251743  0.59568111    -0.92500
O678        O  0.53380777  0.27817157  0.61066650    -0.40300
O679        O  0.46461906  0.29363960  0.58440244    -0.76900
O680        O  0.49471867  0.26878180  0.56812803    -0.95600
O681        O  0.46183549  0.24756584  0.53889536    -0.88900
O682        O  0.42937609  0.27363087  0.55704272    -0.91700
C683        C  0.49754019  0.25720005  0.67320461     1.02000
C684        C  0.40441220  0.25885226  0.65236659     1.15000
C685        C  0.48408694  0.20013032  0.61557831     1.05700
O686        O  0.52983813  0.23124629  0.57732534    -0.93900
O687        O  0.50990743  0.24435250  0.52753822    -0.89600
O688        O  0.49609796  0.27136751  0.50998321    -0.82800
C689        C  0.50982016  0.25761068  0.51004199     1.12400
O690        O  0.40025011  0.21680411  0.57268374    -0.95900
Zr691      Zr  0.42586595  0.24074710  0.55630658     1.88900
O692        O  0.44485554  0.27254501  0.49845479    -0.72500
O693        O  0.48865496  0.20994610  0.53577842    -0.51800
O694        O  0.43045523  0.21121063  0.53271354    -0.96400
O695        O  0.38675487  0.25000322  0.55367907    -0.53700
O696        O  0.42178661  0.24841610  0.50821364    -0.73000
C697        C  0.43016631  0.26037789  0.49159080     0.99300
O698        O  0.48670521  0.30731084  0.52257646    -0.61800
O699        O  0.43310125  0.31082173  0.63486271    -0.56600
O700        O  0.44325472  0.30903259  0.53445455    -0.93300
O701        O  0.42278165  0.31227617  0.57307646    -0.91800
O702        O  0.48708045  0.30677280  0.64464083    -0.92100
O703        O  0.51229432  0.30929088  0.59715145    -0.90900
C704        C  0.42927102  0.31784277  0.54953211     1.18200
H705        H  0.45608391  0.27873318  0.65004343     0.34100
H706        H  0.50910470  0.27214662  0.56074890     0.45000
H707        H  0.41782383  0.27931369  0.54612471     0.38500
H708        H  0.45163220  0.21456199  0.58575308     0.35000
H709        H  0.53943863  0.28426204  0.62735829     0.26800
H710        H  0.50308135  0.20338702  0.53790533     0.32700
H711        H  0.44111911  0.21391478  0.51783472     0.38600
H712        H  0.50150434  0.30833800  0.65419567     0.33100
H713        H  0.43596704  0.32205012  0.62364556     0.31900
H714        H  0.38644245  0.30318272  0.60783731     0.33600
H715        H  0.38588888  0.25907866  0.53851274     0.32600
H716        H  0.51649679  0.30656238  0.57810215     0.36600
H717        H  0.48384027  0.31743195  0.53574951     0.29300
H718        H  0.45151240  0.21706280  0.67742233     0.33600
H719        H  0.39085600  0.21347839  0.55684963     0.36400
H720        H  0.41793353  0.31273946  0.64232756     0.29000
H721        H  0.50253839  0.30412553  0.52589866     0.41900
H722        H  0.53506213  0.22266121  0.56295292     0.31900
H723        H  0.53666027  0.26473263  0.61362866     0.39600
H724        H  0.38420923  0.25750878  0.57024431     0.31400
H725        H  0.47742887  0.20121321  0.54329608     0.31500
H726        H  0.43384613  0.20947741  0.65654465     0.31700
Zr727      Zr  0.44942962  0.02283614  0.65594639     2.17500
O728        O  0.42873744  0.04362814  0.62585175    -0.50600
O729        O  0.47307366  0.01609528  0.61620026    -0.73800
O730        O  0.46562981  0.05421356  0.65397521    -0.80600
O731        O  0.39997783  0.98912297  0.65434368    -0.82400
O732        O  0.48947606  0.05826384  0.68915044    -0.78000
O733        O  0.41401672  0.01502280  0.63423543    -0.89600
O734        O  0.49864238  0.99428201  0.62786990    -0.75600
O735        O  0.48614161  0.01629009  0.67133205    -0.85100
O736        O  0.45294660  0.98971562  0.65621117    -0.84800
O737        O  0.45084771  0.03659545  0.70057101    -0.71500
O738        O  0.42176301  0.01163825  0.68754114    -0.83600
Zr739      Zr  0.46516301  0.98539422  0.74877266     2.26400
Zr740      Zr  0.48792803  0.02968071  0.71568722     2.06300
Zr741      Zr  0.42606880  0.97856630  0.68839366     2.10000
Zr742      Zr  0.48940442  0.98323417  0.67278361     1.78800
O743        O  0.38771805  0.96816925  0.69471318    -0.92500
O744        O  0.52974305  0.98748397  0.67282555    -0.40300
O745        O  0.46255104  0.97140205  0.70450826    -0.76900
O746        O  0.49279676  0.99649675  0.71705749    -0.95600
O747        O  0.46111385  0.01839292  0.74778912    -0.88900
O748        O  0.42827293  0.99150839  0.73305009    -0.91700
C749        C  0.49026064  0.00591854  0.61097634     1.02000
C750        C  0.39879066  0.00254775  0.63718387     1.15000
C751        C  0.47958023  0.06412343  0.66761281     1.05700
O752        O  0.52584962  0.03573258  0.70018179    -0.93900
O753        O  0.51161423  0.02132990  0.75339239    -0.89600
O754        O  0.49741151  0.99599058  0.77500458    -0.82800
C755        C  0.51219908  0.00886790  0.77209865     1.12400
O756        O  0.39821432  0.04850252  0.71802210    -0.95900
Zr757      Zr  0.42426813  0.02432612  0.73245573     1.88900
O758        O  0.44603995  0.99387085  0.79088162    -0.72500
O759        O  0.48795723  0.05499619  0.74850348    -0.51800
O760        O  0.43137818  0.05413209  0.75437508    -0.96400
O761        O  0.38490813  0.01590026  0.73543371    -0.53700
O762        O  0.42080303  0.01646080  0.78080799    -0.73000
C763        C  0.43041244  0.00525438  0.79763668     0.99300
O764        O  0.48791225  0.95936965  0.76488136    -0.61800
O765        O  0.43234534  0.95256399  0.65758346    -0.56600
O766        O  0.44417907  0.95659696  0.75647157    -0.93300
O767        O  0.42132566  0.95298209  0.71993977    -0.91800
O768        O  0.48158542  0.95652903  0.64384804    -0.92100
O769        O  0.50994187  0.95553920  0.68674457    -0.90900
C770        C  0.42929295  0.94764921  0.74287599     1.18200
H771        H  0.45053786  0.98466754  0.63826233     0.34100
H772        H  0.50756349  0.99327196  0.72333178     0.45000
H773        H  0.41723128  0.98599997  0.74492187     0.38500
H774        H  0.44827425  0.04985496  0.69978873     0.35000
H775        H  0.53496406  0.98146799  0.65589168     0.26800
H776        H  0.50249684  0.06129636  0.74579445     0.32700
H777        H  0.44148400  0.05115977  0.76971137     0.38600
H778        H  0.49374943  0.95649692  0.63022003     0.33100
H779        H  0.42199571  0.94270840  0.66392131     0.31900
H780        H  0.38599786  0.95740079  0.68234781     0.33600
H781        H  0.38393782  0.00683604  0.75060266     0.32600
H782        H  0.51300227  0.95743515  0.70632906     0.36600
H783        H  0.48525967  0.94926309  0.75160731     0.29300
H784        H  0.43972396  0.04837293  0.61247933     0.33600
H785        H  0.39033323  0.05245708  0.73473998     0.36400
H786        H  0.42605262  0.95669760  0.63995296     0.29000
H787        H  0.50357431  0.96303342  0.76132306     0.41900
H788        H  0.53468544  0.02497417  0.70673866     0.31900
H789        H  0.53191038  0.00097182  0.66950807     0.39600
H790        H  0.38204397  0.00841762  0.71891177     0.31400
H791        H  0.47678160  0.06397737  0.74156004     0.31500
H792        H  0.42459874  0.05451505  0.63708961     0.31700
Zr793      Zr  0.59165657  0.02719758  0.28699355     2.17500
O794        O  0.57280636  0.05150708  0.26087293    -0.50600
O795        O  0.61183007  0.01845182  0.24601144    -0.73800
O796        O  0.61319499  0.05617407  0.28333351    -0.80600
O797        O  0.54335852  0.99321147  0.27767717    -0.82400
O798        O  0.63623714  0.05789807  0.31978763    -0.78000
O799        O  0.55696668  0.02122042  0.26334209    -0.89600
O800        O  0.63374152  0.99354653  0.25560967    -0.75600
O801        O  0.62761091  0.01858672  0.30295479    -0.85100
O802        O  0.59249348  0.99391382  0.28669111    -0.84800
O803        O  0.59392301  0.04043067  0.33171574    -0.71500
O804        O  0.56218385  0.01678190  0.31657065    -0.83600
Zr805      Zr  0.60180519  0.98838647  0.37906643     2.26400
Zr806      Zr  0.62975522  0.03083012  0.34798216     2.06300
Zr807      Zr  0.56407850  0.98343270  0.31745253     2.10000
Zr808      Zr  0.62823497  0.98547942  0.30329122     1.78800
O809        O  0.52522004  0.98180558  0.33172229    -0.92500
O810        O  0.66829228  0.99042446  0.29872265    -0.40300
O811        O  0.59997781  0.97514940  0.33426680    -0.76900
O812        O  0.63158094  0.99748653  0.34864527    -0.95600
O813        O  0.60073958  0.02145350  0.37862512    -0.88900
O814        O  0.56577960  0.99625172  0.36229800    -0.91700
C815        C  0.62615218  0.00600343  0.23925815     1.02000
C816        C  0.54289494  0.00777377  0.26251277     1.15000
C817        C  0.62841067  0.06433810  0.29739044     1.05700
O818        O  0.66928800  0.03116650  0.33656408    -0.93900
O819        O  0.65100762  0.02219295  0.38752551    -0.89600
O820        O  0.63575034  0.99556297  0.40418368    -0.82800
C821        C  0.65062347  0.00841978  0.40408481     1.12400
O822        O  0.54659950  0.05694932  0.34239011    -0.95900
Zr823      Zr  0.56493762  0.02951186  0.36131120     1.88900
O824        O  0.57854346  0.99676312  0.41848983    -0.72500
O825        O  0.63177066  0.05814222  0.37719574    -0.51800
O826        O  0.57225658  0.05685689  0.38915181    -0.96400
O827        O  0.52455886  0.02535563  0.36286256    -0.53700
O828        O  0.55695097  0.02167687  0.40808365    -0.73000
C829        C  0.56383998  0.00914501  0.42465016     0.99300
O830        O  0.61373685  0.96364888  0.41002145    -0.61800
O831        O  0.55991760  0.95660456  0.28758550    -0.56600
O832        O  0.58782181  0.95671250  0.37723780    -0.93300
O833        O  0.56420747  0.95358584  0.34149867    -0.91800
O834        O  0.61907406  0.95655003  0.28008776    -0.92100
O835        O  0.64987045  0.95873954  0.31865783    -0.90900
C836        C  0.57446807  0.94711087  0.36247282     1.18200
H837        H  0.58991202  0.98904277  0.26867467     0.34100
H838        H  0.64588325  0.99329573  0.35528368     0.45000
H839        H  0.55414716  0.99105531  0.37360959     0.38500
H840        H  0.59303159  0.05385005  0.33083651     0.35000
H841        H  0.67298579  0.98176771  0.28416908     0.26800
H842        H  0.62883000  0.05344088  0.39581248     0.32700
H843        H  0.58359819  0.05279349  0.40255808     0.38600
H844        H  0.62834716  0.95662440  0.26342690     0.33100
H845        H  0.54365446  0.95547667  0.28442458     0.31900
H846        H  0.52088950  0.96865482  0.32877877     0.33600
H847        H  0.52222193  0.01284702  0.37090905     0.32600
H848        H  0.65006834  0.95976650  0.33873113     0.36600
H849        H  0.62918338  0.96042327  0.40466211     0.29300
H850        H  0.58328392  0.05512710  0.24619460     0.33600
H851        H  0.53583499  0.06100936  0.35644321     0.36400
H852        H  0.56611049  0.96059640  0.26983297     0.29000
H853        H  0.61502370  0.96940521  0.42822960     0.41900
H854        H  0.67426150  0.01811847  0.33900183     0.31900
H855        H  0.66972893  0.00294649  0.29039474     0.39600
H856        H  0.52002047  0.02398314  0.34361034     0.31400
H857        H  0.64776909  0.06161214  0.37730123     0.31500
H858        H  0.57195669  0.06245863  0.27301968     0.31700
Zr859      Zr  0.58761071  0.73205742  0.49712527     2.17500
O860        O  0.56407757  0.70762283  0.51637978    -0.50600
O861        O  0.60657791  0.73979118  0.53921783    -0.73800
O862        O  0.60846422  0.70294819  0.50445978    -0.80600
O863        O  0.54125266  0.76852760  0.50306556    -0.82400
O864        O  0.63312385  0.70063467  0.46958938    -0.78000
O865        O  0.55542061  0.74220369  0.52247446    -0.89600
O866        O  0.63016588  0.76370818  0.52975941    -0.75600
O867        O  0.62445006  0.73895492  0.48261277    -0.85100
O868        O  0.59044611  0.76528237  0.49615770    -0.84800
O869        O  0.59039304  0.71806154  0.45312159    -0.71500
O870        O  0.55966455  0.74353606  0.46617434    -0.83600
Zr871      Zr  0.60376032  0.76927120  0.40521702     2.26400
Zr872      Zr  0.62705213  0.72590679  0.43815475     2.06300
Zr873      Zr  0.56378817  0.77674153  0.46398561     2.10000
Zr874      Zr  0.62727106  0.77195003  0.48184859     1.78800
O875        O  0.52569342  0.78033752  0.44755493    -0.92500
O876        O  0.66677651  0.76494852  0.48756508    -0.40300
O877        O  0.60086454  0.78359728  0.44929327    -0.76900
O878        O  0.63168081  0.75906689  0.43734615    -0.95600
O879        O  0.59979302  0.73628734  0.40607746    -0.88900
O880        O  0.56660447  0.76301090  0.41995872    -0.91700
C881        C  0.62126065  0.75189474  0.54616759     1.02000
C882        C  0.54118341  0.75549564  0.52102495     1.15000
C883        C  0.62446185  0.69469856  0.49179517     1.05700
O884        O  0.66642112  0.72068627  0.44731181    -0.93900
O885        O  0.65023684  0.73321902  0.39965268    -0.89600
O886        O  0.63945275  0.76148576  0.38381547    -0.82800
C887        C  0.65292864  0.74757817  0.38451577     1.12400
O888        O  0.54184049  0.70434910  0.44248920    -0.95900
Zr889      Zr  0.56301432  0.72991030  0.42218144     1.88900
O890        O  0.58138216  0.76111016  0.36547647    -0.72500
O891        O  0.62335400  0.69767967  0.41117311    -0.51800
O892        O  0.56729604  0.70114333  0.39658357    -0.96400
O893        O  0.52333108  0.73714929  0.41853656    -0.53700
O894        O  0.55845923  0.73670534  0.37457473    -0.73000
C895        C  0.56651964  0.74911081  0.35863999     0.99300
O896        O  0.61573192  0.79127828  0.37012485    -0.61800
O897        O  0.56094802  0.80327235  0.49460558    -0.56600
O898        O  0.59179222  0.80160968  0.40573310    -0.93300
O899        O  0.56481194  0.80557243  0.43739374    -0.91800
O900        O  0.62117015  0.80104852  0.50609632    -0.92100
O901        O  0.65078720  0.79768516  0.46686174    -0.90900
C902        C  0.57707524  0.81160062  0.41778629     1.18200
H903        H  0.58750509  0.77048479  0.51387265     0.34100
H904        H  0.64662939  0.76244021  0.43196533     0.45000
H905        H  0.55579078  0.76853894  0.40781382     0.38500
H906        H  0.58877415  0.70470498  0.45451660     0.35000
H907        H  0.67219649  0.77421437  0.50090135     0.26800
H908        H  0.62117840  0.70212158  0.39227482     0.32700
H909        H  0.55294508  0.69950959  0.38688674     0.38600
H910        H  0.61061397  0.79796444  0.52092865     0.33100
H911        H  0.57473237  0.81056937  0.49140328     0.31900
H912        H  0.52021408  0.79181545  0.45643389     0.33600
H913        H  0.52249711  0.74852425  0.40714969     0.32600
H914        H  0.65124149  0.79657669  0.44680496     0.36600
H915        H  0.63102579  0.79526090  0.37507225     0.29300
H916        H  0.57180575  0.70341517  0.53310710     0.33600
H917        H  0.52858485  0.70256868  0.43076878     0.36400
H918        H  0.54881298  0.81109559  0.48706895     0.29000
H919        H  0.61743676  0.78394992  0.35322645     0.41900
H920        H  0.67214591  0.73301934  0.45295944     0.31900
H921        H  0.66709010  0.75297122  0.49760301     0.39600
H922        H  0.51896866  0.74132660  0.43695487     0.31400
H923        H  0.63847794  0.69213313  0.41122936     0.31500
H924        H  0.56522047  0.69702471  0.50361965     0.31700
Zr925      Zr  0.71638166  0.02840915  0.99705843     2.17500
O926        O  0.73580871  0.05170115  0.02433163    -0.50600
O927        O  0.69640652  0.01894659  0.03781697    -0.73800
O928        O  0.69542011  0.05740580  0.00296806    -0.80600
O929        O  0.76393967  0.99326500  0.00274832    -0.82400
O930        O  0.67156879  0.06038823  0.96743747    -0.78000
O931        O  0.75151418  0.02103575  0.01922387    -0.89600
O932        O  0.67212320  0.99595720  0.02716607    -0.75600
O933        O  0.68000557  0.02197280  0.98034368    -0.85100
O934        O  0.71316159  0.99523179  0.99600287    -0.84800
O935        O  0.71511325  0.04307511  0.95309542    -0.71500
O936        O  0.74482720  0.01750165  0.96665307    -0.83600
Zr937      Zr  0.70341041  0.99227915  0.90324601     2.26400
Zr938      Zr  0.67895329  0.03551658  0.93585366     2.06300
Zr939      Zr  0.74070840  0.98430007  0.96473006     2.10000
Zr940      Zr  0.67686695  0.98900230  0.97905954     1.78800
O941        O  0.77939834  0.97882548  0.95195431    -0.92500
O942        O  0.63770223  0.99756326  0.98374484    -0.40300
O943        O  0.70433102  0.97760608  0.94752799    -0.76900
O944        O  0.67470629  0.00234701  0.93457769    -0.95600
O945        O  0.70688050  0.02534588  0.90442479    -0.88900
O946        O  0.73975418  0.99837141  0.92059566    -0.91700
C947        C  0.68100885  0.00729644  0.04417051     1.02000
C948        C  0.76534417  0.00740011  0.01853344     1.15000
C949        C  0.67978451  0.06590990  0.99005770     1.05700
O950        O  0.63974575  0.04336292  0.94147503    -0.93900
O951        O  0.65523034  0.02709675  0.89816500    -0.89600
O952        O  0.66818754  0.00001337  0.88050409    -0.82800
C953        C  0.65363288  0.01314563  0.88208219     1.12400
O954        O  0.76336841  0.05828049  0.94020135    -0.95900
Zr955      Zr  0.74301662  0.03148576  0.92251488     1.88900
O956        O  0.72906051  0.99915385  0.86518883    -0.72500
O957        O  0.68557679  0.06319826  0.90824440    -0.51800
O958        O  0.73586669  0.05895928  0.89456754    -0.96400
O959        O  0.78321123  0.02622849  0.92252956    -0.53700
O960        O  0.75272316  0.02236009  0.87680538    -0.73000
C961        C  0.74556021  0.01014697  0.86001771     0.99300
O962        O  0.68771507  0.97430106  0.86582338    -0.61800
O963        O  0.73942818  0.95876961  0.99747116    -0.56600
O964        O  0.71533507  0.95969584  0.90475267    -0.93300
O965        O  0.74063449  0.95546740  0.93840687    -0.91800
O966        O  0.67983059  0.95890220  0.00179022    -0.92100
O967        O  0.65276350  0.96486505  0.96046029    -0.90900
C968        C  0.72922914  0.94949337  0.91805019     1.18200
H969        H  0.71552320  0.98976964  0.01375241     0.34100
H970        H  0.65996441  0.99883524  0.92864544     0.45000
H971        H  0.75122428  0.99281263  0.90947831     0.38500
H972        H  0.71676670  0.05641081  0.95478728     0.35000
H973        H  0.63133471  0.98802480  0.99610958     0.26800
H974        H  0.68209974  0.05931611  0.88941676     0.32700
H975        H  0.74817210  0.05928641  0.88113437     0.38600
H976        H  0.69007409  0.96101307  0.01726881     0.33100
H977        H  0.72790110  0.95016362  0.99040782     0.31900
H978        H  0.78489557  0.96957176  0.96534146     0.33600
H979        H  0.78509288  0.01328580  0.91603868     0.32600
H980        H  0.66062896  0.96053398  0.94393832     0.36600
H981        H  0.70067676  0.96940281  0.85562469     0.29300
H982        H  0.72553148  0.05493235  0.03937198     0.33600
H983        H  0.77314675  0.06250298  0.92515685     0.36400
H984        H  0.75369650  0.95205427  0.99493682     0.29000
H985        H  0.68061037  0.96323605  0.87424232     0.41900
H986        H  0.63486915  0.03603279  0.95750278     0.31900
H987        H  0.63779878  0.00911849  0.99468264     0.39600
H988        H  0.78739650  0.02567012  0.94199729     0.31400
H989        H  0.67334393  0.07181850  0.91316135     0.31500
H990        H  0.73670290  0.06303631  0.01284437     0.31700
Zr991      Zr  0.71462495  0.73434532  0.78593788     2.17500
O992        O  0.73673399  0.71166143  0.76076391    -0.50600
O993        O  0.69432203  0.74347398  0.74496837    -0.73800
O994        O  0.69536612  0.70453086  0.77886129    -0.80600
O995        O  0.76112919  0.77053919  0.78292163    -0.82400
O996        O  0.67127297  0.70088569  0.81399441    -0.78000
O997        O  0.74881293  0.74386442  0.76324505    -0.89600
O998        O  0.66634283  0.76299479  0.75733657    -0.75600
O999        O  0.67773603  0.73966398  0.80189991    -0.85100
O1000       O  0.71023121  0.76739227  0.78776589    -0.84800
O1001       O  0.71352294  0.71957117  0.82992454    -0.71500
O1002       O  0.74214986  0.74583315  0.81722688    -0.83600
Zr1003     Zr  0.69831141  0.76985178  0.87961618     2.26400
Zr1004     Zr  0.67672569  0.72577088  0.84610624     2.06300
Zr1005     Zr  0.73690947  0.77882210  0.81996735     2.10000
Zr1006     Zr  0.67341453  0.77255921  0.80376270     1.78800
O1007       O  0.77538680  0.78372205  0.83419186    -0.92500
O1008       O  0.63331913  0.76706036  0.80230878    -0.40300
O1009       O  0.69989496  0.78461486  0.83572428    -0.76900
O1010       O  0.67063336  0.75871994  0.84791664    -0.95600
O1011       O  0.70356517  0.73692763  0.87809143    -0.88900
O1012       O  0.73543984  0.76488668  0.86411150    -0.91700
C1013       C  0.67681731  0.75318607  0.73973712     1.02000
C1014       C  0.76279467  0.75734279  0.76558729     1.15000
C1015       C  0.67988449  0.69558126  0.79147986     1.05700
O1016       O  0.63723426  0.71917207  0.83980228    -0.93900
O1017       O  0.65438883  0.73169010  0.88574344    -0.89600
O1018       O  0.66479884  0.75950805  0.90331451    -0.82800
C1019       C  0.65191841  0.74521242  0.90234237     1.12400
O1020       O  0.76457564  0.70720348  0.84483022    -0.95900
Zr1021     Zr  0.74031943  0.73197591  0.86135866     1.88900
O1022       O  0.72148502  0.76294505  0.91935856    -0.72500
O1023       O  0.68161020  0.69707742  0.87202087    -0.51800
O1024       O  0.73632617  0.70257066  0.88580452    -0.96400
O1025       O  0.77961191  0.74083507  0.86279716    -0.53700
O1026       O  0.74544599  0.73962307  0.90877699    -0.73000
C1027       C  0.73709351  0.75138345  0.92547103     0.99300
O1028       O  0.67777797  0.78934066  0.91157906    -0.61800
O1029       O  0.73684316  0.80601799  0.79013913    -0.56600
O1030       O  0.71065458  0.80239010  0.87982339    -0.93300
O1031       O  0.73660384  0.80714488  0.84694867    -0.91800
O1032       O  0.67971239  0.80009567  0.77574501    -0.92100
O1033       O  0.65179722  0.79902346  0.81989773    -0.90900
C1034       C  0.72479887  0.81272534  0.86712977     1.18200
H1035       H  0.71252589  0.77297079  0.77008045     0.34100
H1036       H  0.65570964  0.76141533  0.85414778     0.45000
H1037       H  0.74623675  0.77068554  0.87596775     0.38500
H1038       H  0.71584717  0.70631360  0.82820261     0.35000
H1039       H  0.62787701  0.77501004  0.78720727     0.26800
H1040       H  0.68155228  0.70100455  0.89130114     0.32700
H1041       H  0.72562103  0.70520523  0.90063106     0.38600
H1042       H  0.69022722  0.80780302  0.78641593     0.33100
H1043       H  0.75239031  0.81068164  0.79059488     0.31900
H1044       H  0.78084242  0.79406978  0.82259942     0.33600
H1045       H  0.78029518  0.75190733  0.87470730     0.32600
H1046       H  0.65804387  0.80180713  0.83808218     0.36600
H1047       H  0.68911191  0.79571716  0.92287678     0.29300
H1048       H  0.72736449  0.70765922  0.74525116     0.33600
H1049       H  0.77536320  0.70474901  0.85967595     0.36400
H1050       H  0.73497289  0.80106505  0.77151850     0.29000
H1051       H  0.67080735  0.79928477  0.90045896     0.41900
H1052       H  0.63310334  0.72593693  0.82298218     0.31900
H1053       H  0.63178909  0.75420013  0.79536517     0.39600
H1054       H  0.78290145  0.74569643  0.84435855     0.31400
H1055       H  0.66734153  0.69029633  0.86969206     0.31500
H1056       H  0.73790917  0.70059251  0.77275588     0.31700
Zr1057     Zr  0.85208684  0.73754779  0.15464893     2.17500
O1058       O  0.87031091  0.71791901  0.12085509    -0.50600
O1059       O  0.82820197  0.74415073  0.11526089    -0.73800
O1060       O  0.83744213  0.70581823  0.15418795    -0.80600
O1061       O  0.90098647  0.77135635  0.15086332    -0.82400
O1062       O  0.81400174  0.70171680  0.18974163    -0.78000
O1063       O  0.88742841  0.74462090  0.13272250    -0.89600
O1064       O  0.80153055  0.76468971  0.12786163    -0.75600
O1065       O  0.81570428  0.74249474  0.17234375    -0.85100
O1066       O  0.84654741  0.77045752  0.15388214    -0.84800
O1067       O  0.85333414  0.72402561  0.19964022    -0.71500
O1068       O  0.88044417  0.75020942  0.18392199    -0.83600
Zr1069     Zr  0.83841242  0.77553047  0.24657222     2.26400
Zr1070     Zr  0.81678112  0.72966592  0.21732606     2.06300
Zr1071     Zr  0.87427464  0.78304568  0.18361011     2.10000
Zr1072     Zr  0.81045773  0.77539009  0.17279182     1.78800
O1073       O  0.91115635  0.79732919  0.18423482    -0.92500
O1074       O  0.77109756  0.76695608  0.17478948    -0.40300
O1075       O  0.83806005  0.78911927  0.20181200    -0.76900
O1076       O  0.81000353  0.76266014  0.21752189    -0.95600
O1077       O  0.84427100  0.74265529  0.24705405    -0.88900
O1078       O  0.87493777  0.77063138  0.22890039    -0.91700
C1079       C  0.81050204  0.75376548  0.11057178     1.02000
C1080       C  0.90238131  0.75732958  0.13486219     1.15000
C1081       C  0.82371753  0.69589515  0.16811446     1.05700
O1082       O  0.77807221  0.72053101  0.21032284    -0.93900
O1083       O  0.79441947  0.73768498  0.25636327    -0.89600
O1084       O  0.80700895  0.76497776  0.27397592    -0.82800
C1085       C  0.79351986  0.75105113  0.27354672     1.12400
O1086       O  0.90679674  0.71509209  0.21106539    -0.95900
Zr1087     Zr  0.88060113  0.73786746  0.22917726     1.88900
O1088       O  0.86011865  0.76838020  0.28710680    -0.72500
O1089       O  0.82353695  0.70393401  0.24873011    -0.51800
O1090       O  0.87767354  0.70796019  0.25257791    -0.96400
O1091       O  0.91931914  0.74821922  0.23221079    -0.53700
O1092       O  0.88501425  0.74566238  0.27704672    -0.73000
C1093       C  0.87590950  0.75714703  0.29365073     0.99300
O1094       O  0.81573527  0.79825608  0.27088466    -0.61800
O1095       O  0.86412670  0.80695703  0.15058870    -0.56600
O1096       O  0.85583071  0.80637137  0.24971549    -0.93300
O1097       O  0.87920225  0.80933519  0.21367530    -0.91800
O1098       O  0.81196131  0.80319867  0.14425536    -0.92100
O1099       O  0.78750306  0.80097134  0.18918963    -0.90900
C1100       C  0.87049720  0.81535412  0.23577598     1.18200
H1101       H  0.84785923  0.77534587  0.13562111     0.34100
H1102       H  0.79531842  0.76538326  0.22449726     0.45000
H1103       H  0.88608700  0.77678332  0.23986862     0.38500
H1104       H  0.85648688  0.71084824  0.19899800     0.35000
H1105       H  0.76404675  0.77408014  0.15980686     0.26800
H1106       H  0.82118166  0.70918992  0.26709678     0.32700
H1107       H  0.87136817  0.71085989  0.27068239     0.38600
H1108       H  0.81695608  0.79886966  0.12615826     0.33100
H1109       H  0.86541039  0.81883325  0.16064832     0.31900
H1110       H  0.91090438  0.80667738  0.16937695     0.33600
H1111       H  0.92077225  0.75420225  0.25022877     0.32600
H1112       H  0.78818328  0.79994149  0.20925934     0.36600
H1113       H  0.82531831  0.80320115  0.28560303     0.29300
H1114       H  0.85834189  0.71392393  0.10827317     0.33600
H1115       H  0.91653221  0.71156470  0.22651817     0.36400
H1116       H  0.87668276  0.80720657  0.13750747     0.29000
H1117       H  0.81355496  0.80879475  0.25811322     0.41900
H1118       H  0.76960034  0.73236287  0.21044703     0.31900
H1119       H  0.77056805  0.75384291  0.16864748     0.39600
H1120       H  0.92044892  0.75864319  0.21903889     0.31400
H1121       H  0.81073881  0.69540739  0.24601751     0.31500
H1122       H  0.87502391  0.70645895  0.13053940     0.31700
Zr1123     Zr  0.85674479  0.52065514  0.12692458     2.17500
O1124       O  0.87715235  0.54277642  0.15506027    -0.50600
O1125       O  0.83413321  0.51381160  0.16725100    -0.73800
O1126       O  0.83905494  0.55123018  0.12879418    -0.80600
O1127       O  0.90629700  0.48773458  0.13128695    -0.82400
O1128       O  0.81390502  0.55408821  0.09474254    -0.78000
O1129       O  0.89133701  0.51349090  0.15057269    -0.89600
O1130       O  0.81057730  0.48993685  0.15789681    -0.75600
O1131       O  0.82009762  0.51351690  0.11187979    -0.85100
O1132       O  0.85381895  0.48754422  0.12792629    -0.84800
O1133       O  0.85522701  0.53397640  0.08193216    -0.71500
O1134       O  0.88480812  0.50959421  0.09596393    -0.83600
Zr1135     Zr  0.84228162  0.48146830  0.03598791     2.26400
Zr1136     Zr  0.81843360  0.52630416  0.06700638     2.06300
Zr1137     Zr  0.88126812  0.47647534  0.09659430     2.10000
Zr1138     Zr  0.81744959  0.48039027  0.11161365     1.78800
O1139       O  0.92064887  0.46873164  0.09203408    -0.92500
O1140       O  0.77735662  0.48587904  0.11397449    -0.40300
O1141       O  0.84487949  0.46834995  0.08085487    -0.76900
O1142       O  0.81418057  0.49301818  0.06672128    -0.95600
O1143       O  0.84540690  0.51458844  0.03564819    -0.88900
O1144       O  0.87896526  0.48857509  0.05135459    -0.91700
C1145       C  0.81851861  0.50234830  0.17383947     1.02000
C1146       C  0.90670025  0.50112916  0.14843031     1.15000
C1147       C  0.82400771  0.56038841  0.11583229     1.05700
O1148       O  0.77882573  0.53110921  0.07559759    -0.93900
O1149       O  0.79742999  0.51828078  0.02720852    -0.89600
O1150       O  0.81175272  0.49236051  0.00726076    -0.82800
C1151       C  0.79765059  0.50582565  0.00864338     1.12400
O1152       O  0.90685558  0.54633585  0.06565424    -0.95900
Zr1153     Zr  0.88205932  0.52150957  0.05049811     1.88900
O1154       O  0.86283312  0.48813263  0.99421012    -0.72500
O1155       O  0.82210995  0.55276080  0.03615729    -0.51800
O1156       O  0.87618896  0.55022188  0.02487837    -0.96400
O1157       O  0.92121570  0.51278425  0.04622660    -0.53700
O1158       O  0.88465126  0.51343872  0.00235962    -0.73000
C1159       C  0.87678983  0.50074633  0.98664716     0.99300
O1160       O  0.81790575  0.45651777  0.02001714    -0.61800
O1161       O  0.87568882  0.45092727  0.12861129    -0.56600
O1162       O  0.86300234  0.45217908  0.03092545    -0.93300
O1163       O  0.88693286  0.45015210  0.06668257    -0.91800
O1164       O  0.82498553  0.45238870  0.13814499    -0.92100
O1165       O  0.79528839  0.45362033  0.09764533    -0.90900
C1166       C  0.87843021  0.44384741  0.04459330     1.18200
H1167       H  0.85630706  0.48267688  0.14602891     0.34100
H1168       H  0.79953775  0.48973187  0.06005973     0.45000
H1169       H  0.89012968  0.48298621  0.03980446     0.38500
H1170       H  0.85732850  0.54730377  0.08251939     0.35000
H1171       H  0.77233129  0.47892641  0.13029725     0.26800
H1172       H  0.80817914  0.55996657  0.03860919     0.32700
H1173       H  0.88793484  0.55027608  0.01071055     0.38600
H1174       H  0.81316363  0.45206954  0.15220418     0.33100
H1175       H  0.86982366  0.44057221  0.11743963     0.31900
H1176       H  0.92239844  0.45663062  0.10152274     0.33600
H1177       H  0.92199006  0.50476539  0.02991700     0.32600
H1178       H  0.79503115  0.45430742  0.07754056     0.36600
H1179       H  0.82160896  0.44556142  0.03142546     0.29300
H1180       H  0.86659257  0.54674411  0.16939140     0.33600
H1181       H  0.91637184  0.54940233  0.04979081     0.36400
H1182       H  0.89093174  0.44694603  0.13375133     0.29000
H1183       H  0.80278071  0.46004112  0.02626034     0.41900
H1184       H  0.77198392  0.51863334  0.07354487     0.31900
H1185       H  0.77592394  0.49914713  0.11911870     0.39600
H1186       H  0.92394753  0.50419781  0.06167227     0.31400
H1187       H  0.83388551  0.56066812  0.04425897     0.31500
H1188       H  0.87963602  0.55394540  0.14357205     0.31700
Zr1189     Zr  0.95468300  0.52627474  0.65229483     2.17500
O1190       O  0.93564409  0.54918655  0.62381293    -0.50600
O1191       O  0.97942436  0.52072614  0.61342238    -0.73800
O1192       O  0.97162112  0.55724791  0.65364592    -0.80600
O1193       O  0.90701254  0.49180070  0.64161291    -0.82400
O1194       O  0.99522886  0.55935585  0.68942761    -0.78000
O1195       O  0.92155828  0.51887341  0.62579405    -0.89600
O1196       O  0.00486201  0.49864871  0.62489318    -0.75600
O1197       O  0.99076237  0.51887082  0.66904396    -0.85100
O1198       O  0.95768923  0.49319673  0.65050409    -0.84800
O1199       O  0.95441945  0.53837288  0.69795273    -0.71500
O1200       O  0.92533813  0.51451623  0.68110143    -0.83600
Zr1201     Zr  0.96579213  0.48465115  0.74183638     2.26400
Zr1202     Zr  0.99070104  0.53036764  0.71450642     2.06300
Zr1203     Zr  0.92892256  0.48138996  0.67965559     2.10000
Zr1204     Zr  0.99353238  0.48577008  0.66820508     1.78800
O1205       O  0.88923064  0.47792838  0.68901036    -0.92500
O1206       O  0.03394110  0.48870527  0.67181152    -0.40300
O1207       O  0.96482660  0.47283240  0.69638698    -0.76900
O1208       O  0.99513346  0.49715504  0.71374848    -0.95600
O1209       O  0.96257435  0.51770629  0.74359849    -0.88900
O1210       O  0.92966947  0.49226634  0.72531301    -0.91700
C1211       C  0.99683716  0.51081230  0.60847797     1.02000
C1212       C  0.90683796  0.50585745  0.62553578     1.15000
C1213       C  0.98571341  0.56624035  0.66830091     1.05700
O1214       O  0.03063008  0.53270407  0.70595333    -0.93900
O1215       O  0.00888550  0.52185266  0.75606402    -0.89600
O1216       O  0.99402403  0.49525824  0.77355551    -0.82800
C1217       C  0.00778448  0.50896911  0.77406086     1.12400
O1218       O  0.90253916  0.55106957  0.71417604    -0.95900
Zr1219     Zr  0.92656221  0.52515699  0.72732633     1.88900
O1220       O  0.94436148  0.49029333  0.78278569    -0.72500
O1221       O  0.98984366  0.55634589  0.74628145    -0.51800
O1222       O  0.93455617  0.55271518  0.75446891    -0.96400
O1223       O  0.88673230  0.51835781  0.72935413    -0.53700
O1224       O  0.92145428  0.51477099  0.77431594    -0.73000
C1225       C  0.92946656  0.50209648  0.79009694     0.99300
O1226       O  0.98920537  0.45900326  0.75768396    -0.61800
O1227       O  0.93023537  0.45531720  0.64817276    -0.56600
O1228       O  0.94500028  0.45528767  0.74501876    -0.93300
O1229       O  0.92343500  0.45371099  0.70712945    -0.91800
O1230       O  0.98653349  0.46029471  0.63677554    -0.92100
O1231       O  0.01283411  0.45747779  0.68218308    -0.90900
C1232       C  0.93053474  0.44708501  0.72980284     1.18200
H1233       H  0.95589317  0.48871777  0.63212267     0.34100
H1234       H  0.00947426  0.49377304  0.72124920     0.45000
H1235       H  0.91812565  0.48635314  0.73600407     0.38500
H1236       H  0.95221668  0.55169176  0.69805542     0.35000
H1237       H  0.03986425  0.48225863  0.65557073     0.26800
H1238       H  0.00451048  0.56254546  0.74416932     0.32700
H1239       H  0.94426416  0.54824475  0.76941923     0.38600
H1240       H  0.99992094  0.45990406  0.62499428     0.33100
H1241       H  0.94175528  0.44689394  0.65576261     0.31900
H1242       H  0.88444295  0.46720414  0.67782780     0.33600
H1243       H  0.88530149  0.50772176  0.74210428     0.32600
H1244       H  0.01159893  0.45733777  0.70225680     0.36600
H1245       H  0.98730409  0.44907499  0.74394712     0.29300
H1246       H  0.94694311  0.55373168  0.61067633     0.33600
H1247       H  0.89499341  0.55503739  0.73111424     0.36400
H1248       H  0.91597876  0.44861770  0.65108120     0.29000
H1249       H  0.00475084  0.46329145  0.75491522     0.41900
H1250       H  0.03187283  0.53570152  0.68634135     0.31900
H1251       H  0.03698207  0.50205361  0.66831640     0.39600
H1252       H  0.88314114  0.51307257  0.71130772     0.31400
H1253       H  0.97893692  0.56527950  0.73859509     0.31500
H1254       H  0.93231644  0.55995142  0.63568128     0.31700
Zr1255     Zr  0.95093949  0.74338196  0.63055402     2.17500
O1256       O  0.93183008  0.72351690  0.66356407    -0.50600
O1257       O  0.97379822  0.75175214  0.67015271    -0.73800
O1258       O  0.96737989  0.71230298  0.63414248    -0.80600
O1259       O  0.90026138  0.77605217  0.63094510    -0.82400
O1260       O  0.99305649  0.70926528  0.60072167    -0.78000
O1261       O  0.91511211  0.75053255  0.65133485    -0.89600
O1262       O  0.99661328  0.77582436  0.65914595    -0.75600
O1263       O  0.98756065  0.75070261  0.61541177    -0.85100
O1264       O  0.95305262  0.77656378  0.62862605    -0.84800
O1265       O  0.95334365  0.72872601  0.58649587    -0.71500
O1266       O  0.92300028  0.75273805  0.59816900    -0.83600
Zr1267     Zr  0.96582394  0.77986072  0.53662477     2.26400
Zr1268     Zr  0.99027370  0.73660276  0.57160767     2.06300
Zr1269     Zr  0.92568799  0.78590761  0.59584607     2.10000
Zr1270     Zr  0.98943737  0.78381125  0.61233000     1.78800
O1271       O  0.88673718  0.79069010  0.58357803    -0.92500
O1272       O  0.02957456  0.77898506  0.61601251    -0.40300
O1273       O  0.96205706  0.79436536  0.58034791    -0.76900
O1274       O  0.99363859  0.76982580  0.56874508    -0.95600
O1275       O  0.96342239  0.74673411  0.53873967    -0.88900
O1276       O  0.92914879  0.77256639  0.55171963    -0.91700
C1277       C  0.98935395  0.76349765  0.67580037     1.02000
C1278       C  0.89965167  0.76274334  0.64831135     1.15000
C1279       C  0.98253201  0.70303874  0.62159519     1.05700
O1280       O  0.02931129  0.73442631  0.58499479    -0.93900
O1281       O  0.01259384  0.74397264  0.53224427    -0.89600
O1282       O  0.99763382  0.76896764  0.51026555    -0.82800
C1283       C  0.01235618  0.75606590  0.51299056     1.12400
O1284       O  0.90181887  0.71397593  0.56504799    -0.95900
Zr1285     Zr  0.92676971  0.73966901  0.55358442     1.88900
O1286       O  0.94681409  0.77086170  0.49498579    -0.72500
O1287       O  0.99215610  0.70945757  0.54208418    -0.51800
O1288       O  0.93637243  0.71081831  0.53037429    -0.96400
O1289       O  0.88699987  0.74666173  0.55083064    -0.53700
O1290       O  0.92288805  0.74748466  0.50553970    -0.73000
C1291       C  0.93175053  0.75892449  0.48851882     0.99300
O1292       O  0.98936415  0.80498155  0.51918727    -0.61800
O1293       O  0.92502109  0.81264488  0.62618492    -0.56600
O1294       O  0.94364721  0.80792624  0.52732212    -0.93300
O1295       O  0.92185089  0.81171545  0.56460749    -0.91800
O1296       O  0.98125889  0.81297326  0.63538088    -0.92100
O1297       O  0.01238851  0.80905238  0.59447439    -0.90900
C1298       C  0.92885748  0.81685816  0.54111173     1.18200
H1299       H  0.95019986  0.78208274  0.64618603     0.34100
H1300       H  0.00831062  0.77321438  0.56227602     0.45000
H1301       H  0.91804133  0.77762606  0.53953523     0.38500
H1302       H  0.95133958  0.71540738  0.58769427     0.35000
H1303       H  0.03435816  0.78695813  0.63133998     0.26800
H1304       H  0.00650733  0.70338818  0.54668007     0.32700
H1305       H  0.94552668  0.71471882  0.51458257     0.38600
H1306       H  0.99439967  0.81525006  0.64711383     0.33100
H1307       H  0.93836499  0.81999581  0.62108782     0.31900
H1308       H  0.88167519  0.80112107  0.59516275     0.33600
H1309       H  0.88580650  0.75761520  0.53863806     0.32600
H1310       H  0.00334697  0.81459128  0.57966706     0.36600
H1311       H  0.98427050  0.81640244  0.52853705     0.29300
H1312       H  0.94331979  0.71983203  0.67701322     0.33600
H1313       H  0.89467920  0.71033454  0.54768329     0.36400
H1314       H  0.91228928  0.82026659  0.61976809     0.29000
H1315       H  0.00425745  0.80261175  0.52720849     0.41900
H1316       H  0.03342477  0.72125882  0.58179150     0.31900
H1317       H  0.03120626  0.76609219  0.62294768     0.39600
H1318       H  0.88305161  0.75147606  0.56905364     0.31400
H1319       H  0.98059617  0.70083070  0.54909183     0.31500
H1320       H  0.92793356  0.71191754  0.65379829     0.31700
Zr1321     Zr  0.71590824  0.52686653  0.49583258     2.17500
O1322       O  0.73509161  0.54973887  0.52403881    -0.50600
O1323       O  0.69670512  0.51695488  0.53711422    -0.73800
O1324       O  0.69520529  0.55647529  0.50033957    -0.80600
O1325       O  0.76709189  0.49449066  0.49646353    -0.82400
O1326       O  0.67219434  0.55895818  0.46397306    -0.78000
O1327       O  0.75309890  0.52117690  0.51444846    -0.89600
O1328       O  0.67268380  0.49372334  0.52672236    -0.75600
O1329       O  0.67953059  0.51913127  0.48016810    -0.85100
O1330       O  0.71389266  0.49354999  0.49546018    -0.84800
O1331       O  0.71339251  0.54073323  0.45136440    -0.71500
O1332       O  0.74384421  0.51604208  0.46479465    -0.83600
Zr1333     Zr  0.70269632  0.48937107  0.40275353     2.26400
Zr1334     Zr  0.67712473  0.53205440  0.43543709     2.06300
Zr1335     Zr  0.74110092  0.48282000  0.46345119     2.10000
Zr1336     Zr  0.67770930  0.48603919  0.47921252     1.78800
O1337       O  0.77875611  0.47640208  0.44741019    -0.92500
O1338       O  0.63782725  0.49073007  0.48602603    -0.40300
O1339       O  0.70482030  0.47530113  0.44717328    -0.76900
O1340       O  0.67398594  0.49881151  0.43440702    -0.95600
O1341       O  0.70511832  0.52246513  0.40364387    -0.88900
O1342       O  0.73912611  0.49632990  0.41904586    -0.91700
C1343       C  0.68147347  0.50514144  0.54358753     1.02000
C1344       C  0.76847514  0.50879918  0.51186375     1.15000
C1345       C  0.68010352  0.56505653  0.48644602     1.05700
O1346       O  0.63787728  0.53551994  0.44722754    -0.93900
O1347       O  0.65328959  0.52306524  0.39834520    -0.89600
O1348       O  0.66736476  0.49667828  0.38013455    -0.82800
C1349       C  0.65237861  0.50942088  0.38169797     1.12400
O1350       O  0.76239669  0.55599896  0.43812503    -0.95900
Zr1351     Zr  0.74136458  0.52951549  0.42065693     1.88900
O1352       O  0.72673102  0.49710637  0.36357268    -0.72500
O1353       O  0.67707285  0.55898456  0.40517316    -0.51800
O1354       O  0.73389126  0.55748687  0.39398248    -0.96400
O1355       O  0.78164262  0.52454240  0.42030926    -0.53700
O1356       O  0.75011686  0.52065461  0.37469258    -0.73000
C1357       C  0.74278055  0.50845911  0.35801798     0.99300
O1358       O  0.69218451  0.46712819  0.36760849    -0.61800
O1359       O  0.74259978  0.45928144  0.49931420    -0.56600
O1360       O  0.71369469  0.45677762  0.40638069    -0.93300
O1361       O  0.73966218  0.45322612  0.43939406    -0.91800
O1362       O  0.68732093  0.45682069  0.50160826    -0.92100
O1363       O  0.65349679  0.46100042  0.46357041    -0.90900
C1364       C  0.72759611  0.44679632  0.41996636     1.18200
H1365       H  0.71669814  0.48830413  0.51324537     0.34100
H1366       H  0.65932114  0.49489150  0.42871375     0.45000
H1367       H  0.75054342  0.49095699  0.40764711     0.38500
H1368       H  0.71479010  0.55411387  0.45242423     0.35000
H1369       H  0.63403992  0.48312659  0.50223243     0.26800
H1370       H  0.68258204  0.55420536  0.38754774     0.32700
H1371       H  0.72573999  0.55306506  0.37772457     0.38600
H1372       H  0.67555689  0.45502003  0.51551536     0.33100
H1373       H  0.73558207  0.44801451  0.49151601     0.31900
H1374       H  0.78252592  0.46408384  0.45526689     0.33600
H1375       H  0.78386258  0.51271856  0.41037292     0.32600
H1376       H  0.65748707  0.45932846  0.44419116     0.36600
H1377       H  0.67718899  0.46246690  0.37267967     0.29300
H1378       H  0.72441252  0.55314041  0.53856208     0.33600
H1379       H  0.77175109  0.56037454  0.42277272     0.36400
H1380       H  0.75860666  0.45607076  0.50098008     0.29000
H1381       H  0.68996563  0.47444158  0.35071314     0.41900
H1382       H  0.63740271  0.53468698  0.46732261     0.31900
H1383       H  0.63646897  0.50376255  0.49231537     0.39600
H1384       H  0.78549534  0.52148316  0.43939355     0.31400
H1385       H  0.66107665  0.56164361  0.40194175     0.31500
H1386       H  0.73659473  0.56105485  0.51260080     0.31700
Zr1387     Zr  0.71757977  0.23246534  0.28862201     2.17500
O1388       O  0.73879614  0.20926656  0.26338490    -0.50600
O1389       O  0.69874882  0.24207381  0.24681799    -0.73800
O1390       O  0.69707447  0.20308004  0.28147026    -0.80600
O1391       O  0.76897316  0.26460128  0.29071592    -0.82400
O1392       O  0.66975254  0.20153716  0.31329590    -0.78000
O1393       O  0.75354468  0.24013576  0.26833947    -0.89600
O1394       O  0.67578883  0.26632283  0.25597157    -0.75600
O1395       O  0.68064963  0.24072968  0.30132357    -0.85100
O1396       O  0.71694273  0.26574286  0.29090808    -0.84800
O1397       O  0.71207813  0.21748230  0.33191190    -0.71500
O1398       O  0.74453295  0.24153814  0.32234393    -0.83600
Zr1399     Zr  0.69997804  0.26806093  0.38143262     2.26400
Zr1400     Zr  0.67520684  0.22659544  0.34492672     2.06300
Zr1401     Zr  0.74299567  0.27483172  0.32543203     2.10000
Zr1402     Zr  0.68000188  0.27380566  0.30384659     1.78800
O1403       O  0.77989557  0.27825484  0.34561414    -0.92500
O1404       O  0.63985273  0.26988512  0.29870130    -0.40300
O1405       O  0.70590991  0.28310564  0.33823804    -0.76900
O1406       O  0.67298832  0.25981450  0.34725441    -0.95600
O1407       O  0.70140931  0.23500631  0.37935826    -0.88900
O1408       O  0.73728559  0.26045790  0.36879814    -0.91700
C1409       C  0.68418475  0.25429080  0.23966246     1.02000
C1410       C  0.76938417  0.25190988  0.27235742     1.15000
C1411       C  0.68001045  0.19514913  0.29249622     1.05700
O1412       O  0.63609246  0.22383236  0.33221223    -0.93900
O1413       O  0.65067872  0.23400262  0.38205368    -0.89600
O1414       O  0.66456315  0.25969558  0.40277020    -0.82800
C1415       C  0.64958723  0.24705895  0.39965267     1.12400
O1416       O  0.76216190  0.20240074  0.34877943    -0.95900
Zr1417     Zr  0.73834538  0.22732724  0.36568738     1.88900
O1418       O  0.72209591  0.26010760  0.42163906    -0.72500
O1419       O  0.67470144  0.19864083  0.37315087    -0.51800
O1420       O  0.72912334  0.19784632  0.38770658    -0.96400
O1421       O  0.77789209  0.23274413  0.37442912    -0.53700
O1422       O  0.74079232  0.23321060  0.41379719    -0.73000
C1423       C  0.73491227  0.24668483  0.42916097     0.99300
O1424       O  0.67965182  0.28736211  0.41380886    -0.61800
O1425       O  0.74877331  0.30072881  0.29402269    -0.56600
O1426       O  0.71347729  0.30002326  0.38270065    -0.93300
O1427       O  0.74116296  0.30368504  0.35180034    -0.91800
O1428       O  0.68825225  0.30279034  0.27991839    -0.92100
O1429       O  0.66016878  0.30100021  0.32076806    -0.90900
C1430       C  0.72860024  0.30985699  0.37099903     1.18200
H1431       H  0.72095396  0.27116950  0.27358899     0.34100
H1432       H  0.65819255  0.26370833  0.35248092     0.45000
H1433       H  0.74808493  0.26521717  0.38159933     0.38500
H1434       H  0.71311661  0.20411382  0.33022669     0.35000
H1435       H  0.63531108  0.27984187  0.28586471     0.26800
H1436       H  0.65920574  0.19394235  0.37175812     0.32700
H1437       H  0.71668440  0.20081237  0.40021057     0.38600
H1438       H  0.70024651  0.29969979  0.26686216     0.33100
H1439       H  0.73700004  0.30987106  0.29858501     0.31900
H1440       H  0.78620238  0.28956589  0.33696386     0.33600
H1441       H  0.77845676  0.24197564  0.38932263     0.32600
H1442       H  0.66117538  0.29995790  0.34082015     0.36600
H1443       H  0.69092103  0.29177701  0.42702237     0.29300
H1444       H  0.72944366  0.20586502  0.24755394     0.33600
H1445       H  0.76937600  0.19694133  0.36507982     0.36400
H1446       H  0.76284240  0.30664849  0.30007849     0.29000
H1447       H  0.67483709  0.29860710  0.40366544     0.41900
H1448       H  0.63074047  0.23684057  0.33073659     0.31900
H1449       H  0.63814070  0.25822617  0.28820768     0.39600
H1450       H  0.78325622  0.23964068  0.35822963     0.31400
H1451       H  0.68376176  0.18941259  0.36311173     0.31500
H1452       H  0.73915355  0.19800482  0.27506491     0.31700
Zr1453     Zr  0.59272250  0.52825956  0.78636375     2.17500
O1454       O  0.57076508  0.55250737  0.76413999    -0.50600
O1455       O  0.61147147  0.51891317  0.74463084    -0.73800
O1456       O  0.61381552  0.55696770  0.77799161    -0.80600
O1457       O  0.54351629  0.49488433  0.78437246    -0.82400
O1458       O  0.63796716  0.56034261  0.81311164    -0.78000
O1459       O  0.55882511  0.51982381  0.76271132    -0.89600
O1460       O  0.63594621  0.49596445  0.75547767    -0.75600
O1461       O  0.62952066  0.52178389  0.80156663    -0.85100
O1462       O  0.59554809  0.49507604  0.78812121    -0.84800
O1463       O  0.59503002  0.54290524  0.83019348    -0.71500
O1464       O  0.56486167  0.51761223  0.81795773    -0.83600
Zr1465     Zr  0.60829969  0.49217037  0.87984199     2.26400
Zr1466     Zr  0.63172441  0.53556359  0.84557892     2.06300
Zr1467     Zr  0.56842043  0.48449955  0.82045189     2.10000
Zr1468     Zr  0.63233957  0.48881425  0.80350775     1.78800
O1469       O  0.53150841  0.47944629  0.83997285    -0.92500
O1470       O  0.67174035  0.49532483  0.79550171    -0.40300
O1471       O  0.60539848  0.47797086  0.83573031    -0.76900
O1472       O  0.63636675  0.50239328  0.84764035    -0.95600
O1473       O  0.60470482  0.52521420  0.87817652    -0.88900
O1474       O  0.57120915  0.49814649  0.86458874    -0.91700
C1475       C  0.62678425  0.50715859  0.73844214     1.02000
C1476       C  0.54335325  0.50765638  0.76595429     1.15000
C1477       C  0.62951412  0.56567697  0.79045017     1.05700
O1478       O  0.67127806  0.54110346  0.83771247    -0.93900
O1479       O  0.65444638  0.52916174  0.88463610    -0.89600
O1480       O  0.64357487  0.50106874  0.90117368    -0.82800
C1481       C  0.65699394  0.51502878  0.90019803     1.12400
O1482       O  0.54680432  0.55778066  0.84492008    -0.95900
Zr1483     Zr  0.56795715  0.53121908  0.86202565     1.88900
O1484       O  0.58497751  0.49959319  0.91966246    -0.72500
O1485       O  0.62815945  0.56417156  0.87167525    -0.51800
O1486       O  0.57388856  0.55833307  0.89078602    -0.96400
O1487       O  0.52794789  0.52503409  0.86293788    -0.53700
O1488       O  0.56055129  0.52244882  0.90854435    -0.73000
C1489       C  0.56876483  0.51069104  0.92541289     0.99300
O1490       O  0.62072484  0.46979931  0.91416752    -0.61800
O1491       O  0.56266922  0.45978246  0.78732228    -0.56600
O1492       O  0.59889484  0.45913560  0.87763108    -0.93300
O1493       O  0.57293624  0.45489996  0.84463887    -0.91800
O1494       O  0.62513851  0.45887465  0.78206623    -0.92100
O1495       O  0.65695634  0.46461983  0.82108944    -0.90900
C1496       C  0.58532659  0.44883294  0.86411747     1.18200
H1497       H  0.59273327  0.48953470  0.77057903     0.34100
H1498       H  0.65129012  0.49916393  0.85328377     0.45000
H1499       H  0.56028654  0.49262220  0.87659907     0.38500
H1500       H  0.59330870  0.55623185  0.82836686     0.35000
H1501       H  0.67192980  0.50694581  0.78459743     0.26800
H1502       H  0.62310231  0.56006877  0.88990391     0.32700
H1503       H  0.58159118  0.56748944  0.87896712     0.38600
H1504       H  0.63519852  0.45858112  0.76610005     0.33100
H1505       H  0.57768790  0.45443868  0.78432594     0.31900
H1506       H  0.53107803  0.46608351  0.84498494     0.33600
H1507       H  0.52627483  0.51338121  0.87357010     0.32600
H1508       H  0.65282955  0.46339150  0.84051671     0.36600
H1509       H  0.63620011  0.46638077  0.90917457     0.29300
H1510       H  0.57911446  0.55597405  0.74749005     0.33600
H1511       H  0.53691540  0.56153165  0.86007496     0.36400
H1512       H  0.55432141  0.44992451  0.79711886     0.29000
H1513       H  0.62210840  0.47691577  0.93129685     0.41900
H1514       H  0.67408839  0.53642938  0.81911104     0.31900
H1515       H  0.67772444  0.49906779  0.81343685     0.39600
H1516       H  0.52414993  0.52145415  0.84406781     0.31400
H1517       H  0.64372156  0.56837649  0.87454417     0.31500
H1518       H  0.57170067  0.56353093  0.77613783     0.31700
Zr1519     Zr  0.59278987  0.23401556  0.99625380     2.17500
O1520       O  0.57013084  0.21203870  0.02229768    -0.50600
O1521       O  0.61234485  0.24301606  0.03787144    -0.73800
O1522       O  0.61160968  0.20404176  0.00455856    -0.80600
O1523       O  0.54491150  0.26954765  0.99422345    -0.82400
O1524       O  0.63659762  0.20040464  0.97044804    -0.78000
O1525       O  0.55733945  0.24358498  0.01598141    -0.89600
O1526       O  0.63851474  0.26456322  0.02711813    -0.75600
O1527       O  0.63013608  0.23995827  0.98245320    -0.85100
O1528       O  0.59660103  0.26711761  0.99336842    -0.84800
O1529       O  0.59610908  0.21868825  0.95297864    -0.71500
O1530       O  0.56654705  0.24443569  0.96246405    -0.83600
Zr1531     Zr  0.61254302  0.26843487  0.90183427     2.26400
Zr1532     Zr  0.63333279  0.22559999  0.93896906     2.06300
Zr1533     Zr  0.57117377  0.27745976  0.95884369     2.10000
Zr1534     Zr  0.63391821  0.27286597  0.97939329     1.78800
O1535       O  0.53367012  0.28210437  0.94105147    -0.92500
O1536       O  0.67382508  0.26829672  0.98629964    -0.40300
O1537       O  0.60865756  0.28377001  0.94503749    -0.76900
O1538       O  0.63887167  0.25847611  0.93597656    -0.95600
O1539       O  0.60794465  0.23556277  0.90457962    -0.88900
O1540       O  0.57494068  0.26292046  0.91543384    -0.91700
C1541       C  0.62872961  0.25374318  0.04421792     1.02000
C1542       C  0.54298222  0.25664241  0.01215620     1.15000
C1543       C  0.62734814  0.19508507  0.99251763     1.05700
O1544       O  0.67246345  0.22244481  0.95150242    -0.93900
O1545       O  0.65655791  0.23007061  0.90015206    -0.89600
O1546       O  0.64731854  0.25772881  0.88087908    -0.82800
C1547       C  0.66003872  0.24338487  0.88344106     1.12400
O1548       O  0.54631165  0.20503199  0.93489971    -0.95900
Zr1549     Zr  0.57073901  0.22997408  0.91901865     1.88900
O1550       O  0.59108728  0.26043669  0.86113123    -0.72500
O1551       O  0.63326066  0.19678940  0.91291851    -0.51800
O1552       O  0.57890641  0.20065818  0.89621329    -0.96400
O1553       O  0.53122858  0.23701565  0.91325021    -0.53700
O1554       O  0.56726742  0.23677264  0.87099146    -0.73000
C1555       C  0.57591846  0.24860068  0.85448841     0.99300
O1556       O  0.63507943  0.28760189  0.87133170    -0.61800
O1557       O  0.56935141  0.30409318  0.98934346    -0.56600
O1558       O  0.59885233  0.30054157  0.89864417    -0.93300
O1559       O  0.57289647  0.30558739  0.93123905    -0.91800
O1560       O  0.62534105  0.30239676  0.00127624    -0.92100
O1561       O  0.65826319  0.29733073  0.96197200    -0.90900
C1562       C  0.58469678  0.31104790  0.91092202     1.18200
H1563       H  0.59331144  0.27293925  0.01058884     0.34100
H1564       H  0.65399743  0.26120572  0.93050732     0.45000
H1565       H  0.56447034  0.26830409  0.90271135     0.38500
H1566       H  0.59397392  0.20541598  0.95498913     0.35000
H1567       H  0.67722900  0.27460433  0.00369552     0.26800
H1568       H  0.64711197  0.19027613  0.91843652     0.32700
H1569       H  0.59054301  0.20373802  0.88262410     0.38600
H1570       H  0.62047407  0.29906053  0.01990543     0.33100
H1571       H  0.58186787  0.31225743  0.98373588     0.31900
H1572       H  0.52820781  0.29346875  0.95024860     0.33600
H1573       H  0.53070520  0.24738198  0.89993693     0.32600
H1574       H  0.65533712  0.29760517  0.94214930     0.36600
H1575       H  0.62463791  0.29240743  0.85737502     0.29300
H1576       H  0.57926065  0.20849627  0.03828829     0.33600
H1577       H  0.53847756  0.20046455  0.91848548     0.36400
H1578       H  0.55576429  0.31094444  0.98374102     0.29000
H1579       H  0.63962221  0.29861359  0.88207738     0.41900
H1580       H  0.67267603  0.22309353  0.97160464     0.31900
H1581       H  0.67543133  0.25486673  0.99044175     0.39600
H1582       H  0.52668472  0.24273742  0.93068327     0.31400
H1583       H  0.62106193  0.18920466  0.92082772     0.31500
H1584       H  0.56920518  0.20064122  0.01106119     0.31700
Zr1585     Zr  0.08984304  0.02977656  0.79037930     2.17500
O1586       O  0.06684791  0.05428347  0.77038985    -0.50600
O1587       O  0.10802293  0.02065055  0.74833158    -0.73800
O1588       O  0.11128839  0.05850312  0.78107835    -0.80600
O1589       O  0.04278371  0.99447048  0.78681609    -0.82400
O1590       O  0.13594280  0.06111797  0.81576550    -0.78000
O1591       O  0.05676931  0.02009733  0.76565163    -0.89600
O1592       O  0.13173876  0.99691009  0.75758689    -0.75600
O1593       O  0.12686493  0.02157198  0.80297753    -0.85100
O1594       O  0.09103697  0.99649642  0.79219856    -0.84800
O1595       O  0.09516807  0.04403916  0.83400831    -0.71500
O1596       O  0.06278683  0.01991881  0.82378218    -0.83600
Zr1597     Zr  0.10794383  0.99307704  0.88266132     2.26400
Zr1598     Zr  0.13217679  0.03517865  0.84676272     2.06300
Zr1599     Zr  0.06510665  0.98658617  0.82634538     2.10000
Zr1600     Zr  0.12784782  0.98846194  0.80497963     1.78800
O1601       O  0.02706263  0.98555556  0.84370419    -0.92500
O1602       O  0.16805039  0.99143522  0.79898806    -0.40300
O1603       O  0.10222573  0.97858577  0.83930147    -0.76900
O1604       O  0.13487203  0.00183044  0.84849315    -0.95600
O1605       O  0.10606521  0.02617127  0.88123695    -0.88900
O1606       O  0.07055517  0.00038101  0.86998343    -0.91700
C1607       C  0.12280321  0.00867763  0.74124690     1.02000
C1608       C  0.04244380  0.00686161  0.76792083     1.15000
C1609       C  0.12724442  0.06699732  0.79353952     1.05700
O1610       O  0.17048352  0.04119291  0.83276021    -0.93900
O1611       O  0.15888677  0.02608533  0.88090911    -0.89600
O1612       O  0.14435284  0.00075203  0.90217240    -0.82800
C1613       C  0.15992289  0.01278079  0.89827421     1.12400
O1614       O  0.04723109  0.05993203  0.85094295    -0.95900
Zr1615     Zr  0.06894776  0.03353353  0.86758269     1.88900
O1616       O  0.08717375  0.00112712  0.92368866    -0.72500
O1617       O  0.13211389  0.06164892  0.87760328    -0.51800
O1618       O  0.07876547  0.06158904  0.89270070    -0.96400
O1619       O  0.02896646  0.02906322  0.87423934    -0.53700
O1620       O  0.06430231  0.02558606  0.91508102    -0.73000
C1621       C  0.07240205  0.01308293  0.93088608     0.99300
O1622       O  0.12183603  0.97030634  0.91551313    -0.61800
O1623       O  0.05958046  0.95837972  0.79970201    -0.56600
O1624       O  0.09493570  0.96100391  0.88292955    -0.93300
O1625       O  0.06647585  0.95772556  0.85303753    -0.91800
O1626       O  0.11565406  0.96038793  0.78161024    -0.92100
O1627       O  0.14914751  0.96099950  0.81814600    -0.90900
C1628       C  0.07948774  0.95131525  0.87168711     1.18200
H1629       H  0.08735851  0.99112391  0.77477420     0.34100
H1630       H  0.14973528  0.99768176  0.85296163     0.45000
H1631       H  0.05988589  0.99529703  0.88273060     0.38500
H1632       H  0.09400759  0.05742049  0.83244661     0.35000
H1633       H  0.17151316  0.98381690  0.78277923     0.26800
H1634       H  0.14785408  0.06584276  0.87807640     0.32700
H1635       H  0.08772255  0.05718637  0.90837349     0.38600
H1636       H  0.12583075  0.95923581  0.76584535     0.33100
H1637       H  0.04324309  0.95748583  0.79698285     0.31900
H1638       H  0.02324741  0.97213620  0.84423158     0.33600
H1639       H  0.02757436  0.01737837  0.88485953     0.32600
H1640       H  0.14411636  0.95817150  0.83689429     0.36600
H1641       H  0.13682214  0.96653093  0.90907205     0.29300
H1642       H  0.07449151  0.05795745  0.75333291     0.33600
H1643       H  0.04027016  0.06549762  0.86726897     0.36400
H1644       H  0.06565103  0.96130192  0.78145513     0.29000
H1645       H  0.12445899  0.97719925  0.93262595     0.41900
H1646       H  0.17175892  0.03547315  0.81453904     0.31900
H1647       H  0.17029414  0.00443961  0.79282437     0.39600
H1648       H  0.02315608  0.02585371  0.85599659     0.31400
H1649       H  0.12416512  0.07163771  0.86761630     0.31500
H1650       H  0.06848574  0.06513434  0.78261257     0.31700
Zr1651     Zr  0.08890033  0.73354162  0.99691764     2.17500
O1652       O  0.06697160  0.70956258  0.01986702    -0.50600
O1653       O  0.10774930  0.74183208  0.03899992    -0.73800
O1654       O  0.11003456  0.70445609  0.00353608    -0.80600
O1655       O  0.04019132  0.76761354  0.00014372    -0.82400
O1656       O  0.13500309  0.70254884  0.96908244    -0.78000
O1657       O  0.05459412  0.74177862  0.02031199    -0.89600
O1658       O  0.13146941  0.76561104  0.03007057    -0.75600
O1659       O  0.12575374  0.74178000  0.98390532    -0.85100
O1660       O  0.09030029  0.76678588  0.99646827    -0.84800
O1661       O  0.09337488  0.72009139  0.95256085    -0.71500
O1662       O  0.06180669  0.74401846  0.96422224    -0.83600
Zr1663     Zr  0.10579968  0.77243652  0.90530605     2.26400
Zr1664     Zr  0.13023048  0.72917758  0.93936795     2.06300
Zr1665     Zr  0.06408620  0.77737501  0.96308662     2.10000
Zr1666     Zr  0.12702689  0.77485730  0.98310227     1.78800
O1667       O  0.02613168  0.77903840  0.94548934    -0.92500
O1668       O  0.16710360  0.77003339  0.98764468    -0.40300
O1669       O  0.10108145  0.78583875  0.94970919    -0.76900
O1670       O  0.13281415  0.76247818  0.93870531    -0.95600
O1671       O  0.10398528  0.73930816  0.90579422    -0.88900
O1672       O  0.06865032  0.76475209  0.91852361    -0.91700
C1673       C  0.12274370  0.75360084  0.04620379     1.02000
C1674       C  0.03968940  0.75454112  0.01798988     1.15000
C1675       C  0.12610108  0.69623559  0.99096677     1.05700
O1676       O  0.16917694  0.72603154  0.95275508    -0.93900
O1677       O  0.15455761  0.73831107  0.90277253    -0.89600
O1678       O  0.14156160  0.76505576  0.88398779    -0.82800
C1679       C  0.15628167  0.75212353  0.88635959     1.12400
O1680       O  0.04740692  0.70268174  0.93010702    -0.95900
Zr1681     Zr  0.06715872  0.73151697  0.91964178     1.88900
O1682       O  0.08345398  0.76554720  0.86454523    -0.72500
O1683       O  0.13102815  0.70245544  0.90900744    -0.51800
O1684       O  0.07831033  0.70589438  0.89018460    -0.96400
O1685       O  0.02675100  0.73538940  0.91891127    -0.53700
O1686       O  0.06004252  0.74148332  0.87360250    -0.73000
C1687       C  0.06790664  0.75404970  0.85775520     0.99300
O1688       O  0.12556750  0.79336069  0.87433581    -0.61800
O1689       O  0.05820632  0.80400616  0.99286689    -0.56600
O1690       O  0.09197497  0.80445810  0.90627519    -0.93300
O1691       O  0.06589102  0.80730481  0.93939794    -0.91800
O1692       O  0.11563709  0.80213712  0.00892439    -0.92100
O1693       O  0.14992509  0.80166463  0.97099687    -0.90900
C1694       C  0.07767907  0.81400993  0.91981184     1.18200
H1695       H  0.08678099  0.77179907  0.01415832     0.34100
H1696       H  0.14766385  0.76645221  0.93379147     0.45000
H1697       H  0.05766917  0.77014636  0.90647811     0.38500
H1698       H  0.09213606  0.70668691  0.95351795     0.35000
H1699       H  0.17091348  0.77488273  0.00588870     0.26800
H1700       H  0.14564868  0.69648514  0.91247130     0.32700
H1701       H  0.08636296  0.71175371  0.87478342     0.38600
H1702       H  0.12866476  0.80517614  0.02047689     0.33100
H1703       H  0.04185376  0.80597435  0.99289967     0.31900
H1704       H  0.02651895  0.78893726  0.93143417     0.33600
H1705       H  0.02419491  0.74706923  0.90861248     0.32600
H1706       H  0.14765612  0.80322748  0.95117247     0.36600
H1707       H  0.11407709  0.79863619  0.86206883     0.29300
H1708       H  0.07563440  0.70614365  0.03629599     0.33600
H1709       H  0.03899727  0.69956888  0.91338350     0.36400
H1710       H  0.06170272  0.79949586  0.01143034     0.29000
H1711       H  0.13080054  0.80395367  0.88551618     0.41900
H1712       H  0.17420229  0.71425595  0.94431745     0.31900
H1713       H  0.16887220  0.75636904  0.98934193     0.39600
H1714       H  0.02265671  0.73849238  0.93786971     0.31400
H1715       H  0.11995859  0.69364070  0.91666931     0.31500
H1716       H  0.06763307  0.69847351  0.00798055     0.31700
Zr1717     Zr  0.21245133  0.02715584  0.49850298     2.17500
O1718       O  0.23577654  0.05161145  0.51779625    -0.50600
O1719       O  0.19304315  0.01915036  0.54029943    -0.73800
O1720       O  0.19146583  0.05602125  0.50637306    -0.80600
O1721       O  0.26141022  0.99385750  0.49965798    -0.82400
O1722       O  0.16609670  0.05840663  0.47232728    -0.78000
O1723       O  0.24591321  0.01790592  0.52288901    -0.89600
O1724       O  0.16946878  0.99530492  0.53127552    -0.75600
O1725       O  0.17554665  0.01912576  0.48547617    -0.85100
O1726       O  0.21104881  0.99390054  0.49746871    -0.84800
O1727       O  0.20758348  0.04135760  0.45469147    -0.71500
O1728       O  0.23942772  0.01719414  0.46549270    -0.83600
Zr1729     Zr  0.19451359  0.99035822  0.40637881     2.26400
Zr1730     Zr  0.17065841  0.03264789  0.44145733     2.06300
Zr1731     Zr  0.23688365  0.98391491  0.46343094     2.10000
Zr1732     Zr  0.17427682  0.98604185  0.48433440     1.78800
O1733       O  0.27507297  0.97971188  0.44765647    -0.92500
O1734       O  0.13428909  0.99037577  0.49056761    -0.40300
O1735       O  0.19981952  0.97571420  0.45005328    -0.76900
O1736       O  0.16781982  0.99935881  0.44056335    -0.95600
O1737       O  0.19681727  0.02344481  0.40731774    -0.88900
O1738       O  0.23182512  0.99756192  0.41944646    -0.91700
C1739       C  0.17786356  0.00746812  0.54734541     1.02000
C1740       C  0.26139676  0.00583649  0.51897729     1.15000
C1741       C  0.17534355  0.06440377  0.49409280     1.05700
O1742       O  0.13187706  0.03866602  0.45319527    -0.93900
O1743       O  0.14468260  0.02330166  0.40671149    -0.89600
O1744       O  0.15781718  0.99708850  0.38676192    -0.82800
C1745       C  0.14276213  0.00962416  0.39023098     1.12400
O1746       O  0.25603242  0.05802718  0.43292091    -0.95900
Zr1747     Zr  0.23384296  0.03065041  0.42155205     1.88900
O1748       O  0.21585590  0.99810924  0.36539677    -0.72500
O1749       O  0.17181913  0.05979020  0.41162992    -0.51800
O1750       O  0.22372525  0.05840763  0.39568871    -0.96400
O1751       O  0.27407427  0.02559342  0.42107806    -0.53700
O1752       O  0.23988466  0.02159031  0.37501991    -0.73000
C1753       C  0.23146738  0.00956345  0.35883379     0.99300
O1754       O  0.17543650  0.97075766  0.37327972    -0.61800
O1755       O  0.23934151  0.95702804  0.49376003    -0.56600
O1756       O  0.20957251  0.95891800  0.40508872    -0.93300
O1757       O  0.23740071  0.95579824  0.43588488    -0.91800
O1758       O  0.18520248  0.95827088  0.50961262    -0.92100
O1759       O  0.15270354  0.95886917  0.47067821    -0.90900
C1760       C  0.22522367  0.94951035  0.41646175     1.18200
H1761       H  0.21463586  0.98867370  0.51505796     0.34100
H1762       H  0.15291506  0.99530767  0.43613615     0.45000
H1763       H  0.24263585  0.99236047  0.40704355     0.38500
H1764       H  0.20883539  0.05474114  0.45601960     0.35000
H1765       H  0.13022551  0.98183950  0.50563983     0.26800
H1766       H  0.16716804  0.05510840  0.39358181     0.32700
H1767       H  0.21626514  0.05370253  0.37910945     0.38600
H1768       H  0.19384761  0.95076845  0.49644505     0.33100
H1769       H  0.25462895  0.95214086  0.49111599     0.31900
H1770       H  0.28031800  0.96824350  0.45688348     0.33600
H1771       H  0.27876539  0.02835149  0.40218478     0.32600
H1772       H  0.15868073  0.95555524  0.45255365     0.36600
H1773       H  0.18723045  0.96579101  0.36121095     0.29300
H1774       H  0.22802545  0.05570467  0.53452555     0.33600
H1775       H  0.26417899  0.06139059  0.41607010     0.36400
H1776       H  0.23945676  0.96217062  0.51241013     0.29000
H1777       H  0.16979537  0.95987871  0.38364034     0.41900
H1778       H  0.13033295  0.03425544  0.47220138     0.31900
H1779       H  0.13283127  0.00298304  0.49847401     0.39600
H1780       H  0.27592893  0.01196193  0.42292043     0.31400
H1781       H  0.15919075  0.06763715  0.41769027     0.31500
H1782       H  0.23456438  0.06225753  0.50501960     0.31700
Zr1783     Zr  0.21633321  0.73410798  0.28735724     2.17500
O1784       O  0.23994562  0.70966627  0.26862302    -0.50600
O1785       O  0.19599108  0.74182201  0.24595071    -0.73800
O1786       O  0.19475081  0.70532788  0.28013449    -0.80600
O1787       O  0.26368734  0.76892331  0.28261579    -0.82400
O1788       O  0.17220675  0.70257193  0.31690354    -0.78000
O1789       O  0.24859257  0.74400267  0.26110557    -0.89600
O1790       O  0.17276559  0.76582083  0.25577478    -0.75600
O1791       O  0.17980894  0.74147105  0.30263453    -0.85100
O1792       O  0.21406187  0.76732968  0.28812761    -0.84800
O1793       O  0.21376334  0.72027623  0.33181564    -0.71500
O1794       O  0.24423824  0.74506873  0.31863805    -0.83600
Zr1795     Zr  0.20172761  0.77148894  0.38031137     2.26400
Zr1796     Zr  0.17734321  0.72849504  0.34722658     2.06300
Zr1797     Zr  0.24086218  0.77824258  0.32047785     2.10000
Zr1798     Zr  0.17763186  0.77448756  0.30322642     1.78800
O1799       O  0.27923870  0.78171805  0.33594746    -0.92500
O1800       O  0.13771470  0.76996967  0.29640683    -0.40300
O1801       O  0.20420916  0.78547311  0.33586666    -0.76900
O1802       O  0.17358411  0.76170824  0.34812963    -0.95600
O1803       O  0.20476075  0.73840900  0.37947643    -0.88900
O1804       O  0.23851057  0.76482170  0.36486420    -0.91700
C1805       C  0.18091466  0.75372859  0.23935597     1.02000
C1806       C  0.26363639  0.75663082  0.26379669     1.15000
C1807       C  0.17958059  0.69678861  0.29398964     1.05700
O1808       O  0.13805824  0.72513575  0.33571047    -0.93900
O1809       O  0.15424445  0.73605070  0.38550402    -0.89600
O1810       O  0.16685691  0.76313941  0.40326946    -0.82800
C1811       C  0.15256318  0.74983540  0.40176511     1.12400
O1812       O  0.26309692  0.70567259  0.34562690    -0.95900
Zr1813     Zr  0.24125624  0.73169178  0.36305144     1.88900
O1814       O  0.22476388  0.76374568  0.42024242    -0.72500
O1815       O  0.17753167  0.70051907  0.37540321    -0.51800
O1816       O  0.23425186  0.70344511  0.38936445    -0.96400
O1817       O  0.28133209  0.73750494  0.36453222    -0.53700
O1818       O  0.24817294  0.74001268  0.40992510    -0.73000
C1819       C  0.24039885  0.75216384  0.42643901     0.99300
O1820       O  0.18731106  0.79538539  0.41081793    -0.61800
O1821       O  0.24351956  0.80515985  0.29025651    -0.56600
O1822       O  0.21502737  0.80356528  0.37983774    -0.93300
O1823       O  0.24007160  0.80732602  0.34578700    -0.91800
O1824       O  0.18866217  0.80266515  0.27898092    -0.92100
O1825       O  0.15401533  0.80029401  0.31733104    -0.90900
C1826       C  0.22894756  0.81350093  0.36619332     1.18200
H1827       H  0.21687366  0.77256364  0.27033495     0.34100
H1828       H  0.15882850  0.76528775  0.35396340     0.45000
H1829       H  0.24967728  0.77025932  0.37657771     0.38500
H1830       H  0.21517134  0.70690343  0.33050032     0.35000
H1831       H  0.13401217  0.77757217  0.28017460     0.26800
H1832       H  0.18245861  0.70479342  0.39356231     0.32700
H1833       H  0.22596017  0.69512522  0.37691745     0.38600
H1834       H  0.19574037  0.81060928  0.29296667     0.33100
H1835       H  0.25934952  0.80905962  0.29123152     0.31900
H1836       H  0.28644876  0.78971333  0.32204734     0.33600
H1837       H  0.28309905  0.74884414  0.37572596     0.32600
H1838       H  0.15787188  0.80228120  0.33668591     0.36600
H1839       H  0.17182481  0.79799077  0.40488429     0.29300
H1840       H  0.23279894  0.70609636  0.25124657     0.33600
H1841       H  0.27225248  0.70128123  0.36113836     0.36400
H1842       H  0.24171898  0.80019579  0.27162891     0.29000
H1843       H  0.18595616  0.78945586  0.42895373     0.41900
H1844       H  0.13251593  0.73806379  0.33384579     0.31900
H1845       H  0.13628155  0.75693655  0.29011852     0.39600
H1846       H  0.28523791  0.74156952  0.34586401     0.31400
H1847       H  0.16156792  0.69734493  0.37782545     0.31500
H1848       H  0.23783142  0.69877334  0.28076549     0.31700
Zr1849     Zr  0.85375312  0.23800801  0.65579437     2.17500
O1850       O  0.87207484  0.21794638  0.62262763    -0.50600
O1851       O  0.82810259  0.24326310  0.61771517    -0.73800
O1852       O  0.83991249  0.20595413  0.65722859    -0.80600
O1853       O  0.90284245  0.27129816  0.64973869    -0.82400
O1854       O  0.81705731  0.20253243  0.69349484    -0.78000
O1855       O  0.88754024  0.24542960  0.63095148    -0.89600
O1856       O  0.80313227  0.26546182  0.62930538    -0.75600
O1857       O  0.81766874  0.24363623  0.67384628    -0.85100
O1858       O  0.84863996  0.27100158  0.65442564    -0.84800
O1859       O  0.85607049  0.22524515  0.70114054    -0.71500
O1860       O  0.88281189  0.25076860  0.68397006    -0.83600
Zr1861     Zr  0.84212979  0.27740239  0.74745827     2.26400
Zr1862     Zr  0.81966088  0.23135736  0.71889740     2.06300
Zr1863     Zr  0.87711458  0.28364297  0.68313429     2.10000
Zr1864     Zr  0.81295520  0.27661360  0.67404835     1.78800
O1865       O  0.91515043  0.29545578  0.68580722    -0.92500
O1866       O  0.77286974  0.27079086  0.67462874    -0.40300
O1867       O  0.84129207  0.29011018  0.70213874    -0.76900
O1868       O  0.81307414  0.26431551  0.71942391    -0.95600
O1869       O  0.84766617  0.24457064  0.74750774    -0.88900
O1870       O  0.87831304  0.27215765  0.72890917    -0.91700
C1871       C  0.81088483  0.25339020  0.61268902     1.02000
C1872       C  0.90312419  0.25756752  0.63310298     1.15000
C1873       C  0.82660813  0.19624062  0.67209213     1.05700
O1874       O  0.78000831  0.22757427  0.70961254    -0.93900
O1875       O  0.80161082  0.23782625  0.76119169    -0.89600
O1876       O  0.81497818  0.26464057  0.77945785    -0.82800
C1877       C  0.80219674  0.25023921  0.77976284     1.12400
O1878       O  0.91124685  0.21683044  0.71415757    -0.95900
Zr1879     Zr  0.88377831  0.23942244  0.72975898     1.88900
O1880       O  0.86418320  0.27067791  0.78812323    -0.72500
O1881       O  0.82146271  0.20487384  0.74996728    -0.51800
O1882       O  0.88133178  0.20975196  0.75376629    -0.96400
O1883       O  0.92211373  0.25078760  0.73172123    -0.53700
O1884       O  0.88711422  0.24660928  0.77802088    -0.73000
C1885       C  0.87885262  0.25840846  0.79483307     0.99300
O1886       O  0.81722453  0.30119045  0.76574314    -0.61800
O1887       O  0.86974259  0.30761037  0.64908832    -0.56600
O1888       O  0.86066686  0.30789690  0.75051111    -0.93300
O1889       O  0.88130582  0.31068376  0.71191646    -0.91800
O1890       O  0.81808558  0.30416120  0.64568010    -0.92100
O1891       O  0.79048463  0.30242524  0.69079267    -0.90900
C1892       C  0.87426284  0.31680690  0.73483510     1.18200
H1893       H  0.84968711  0.27573602  0.63602416     0.34100
H1894       H  0.79867018  0.26683434  0.72743829     0.45000
H1895       H  0.88966326  0.27843376  0.73941749     0.38500
H1896       H  0.85923398  0.21206455  0.70097120     0.35000
H1897       H  0.76682171  0.27837217  0.65946223     0.26800
H1898       H  0.80739285  0.19793119  0.74700572     0.32700
H1899       H  0.86875778  0.21129210  0.76662183     0.38600
H1900       H  0.80409692  0.30518779  0.63506462     0.33100
H1901       H  0.87392392  0.31946058  0.65798952     0.31900
H1902       H  0.91547689  0.30628600  0.67328151     0.33600
H1903       H  0.92308286  0.25802279  0.74878342     0.32600
H1904       H  0.78867909  0.29993384  0.71048703     0.36600
H1905       H  0.81833241  0.31180561  0.75290541     0.29300
H1906       H  0.86003905  0.21336868  0.61057721     0.33600
H1907       H  0.92065948  0.21400711  0.73021152     0.36400
H1908       H  0.88137156  0.30572095  0.63506383     0.29000
H1909       H  0.80195458  0.29634462  0.76270441     0.41900
H1910       H  0.77603041  0.21549800  0.71811769     0.31900
H1911       H  0.77122303  0.25775253  0.66843662     0.39600
H1912       H  0.92311797  0.26023787  0.71705340     0.31400
H1913       H  0.83329185  0.19669687  0.74260483     0.31500
H1914       H  0.87725800  0.20683962  0.63282150     0.31700
Zr1915     Zr  0.85802460  0.02058353  0.62769259     2.17500
O1916       O  0.88006230  0.04219013  0.65495466    -0.50600
O1917       O  0.83857212  0.01302685  0.67004651    -0.73800
O1918       O  0.84065328  0.05112566  0.63219667    -0.80600
O1919       O  0.90914816  0.98836100  0.62512112    -0.82400
O1920       O  0.81216151  0.05351141  0.60217678    -0.78000
O1921       O  0.89446090  0.01343280  0.64666569    -0.89600
O1922       O  0.81661754  0.98766139  0.66359698    -0.75600
O1923       O  0.82055262  0.01209138  0.61786257    -0.85100
O1924       O  0.85705199  0.98741002  0.62764025    -0.84800
O1925       O  0.85124472  0.03441260  0.58379176    -0.71500
O1926       O  0.88370597  0.01125330  0.59277571    -0.83600
Zr1927     Zr  0.83681810  0.98195911  0.53857733     2.26400
Zr1928     Zr  0.81359626  0.02551882  0.57414854     2.06300
Zr1929     Zr  0.88200903  0.97796173  0.59243154     2.10000
Zr1930     Zr  0.81981131  0.97887553  0.61662319     1.78800
O1931       O  0.92043572  0.97305749  0.57800338    -0.92500
O1932       O  0.77990200  0.98211657  0.62473834    -0.40300
O1933       O  0.84488297  0.96833322  0.58208330    -0.76900
O1934       O  0.81125693  0.99208135  0.57335205    -0.95600
O1935       O  0.83798902  0.01524375  0.53865385    -0.88900
O1936       O  0.87430662  0.99051258  0.54846908    -0.91700
C1937       C  0.82447414  0.00074974  0.67834598     1.02000
C1938       C  0.91001517  0.00145786  0.64268349     1.15000
C1939       C  0.82434746  0.06008710  0.62140478     1.05700
O1940       O  0.77587789  0.02899883  0.59180029    -0.93900
O1941       O  0.78809410  0.01614018  0.53885967    -0.89600
O1942       O  0.80274727  0.99163075  0.51566170    -0.82800
C1943       C  0.78740657  0.00372878  0.52019016     1.12400
O1944       O  0.89879470  0.05066658  0.55721526    -0.95900
Zr1945     Zr  0.87542373  0.02350868  0.54854002     1.88900
O1946       O  0.85279173  0.98966219  0.49455142    -0.72500
O1947       O  0.80994119  0.05206733  0.54346857    -0.51800
O1948       O  0.86410536  0.05164209  0.52430422    -0.96400
O1949       O  0.91507050  0.01769081  0.54140629    -0.53700
O1950       O  0.87593842  0.01422947  0.50111120    -0.73000
C1951       C  0.86691738  0.00178724  0.48597703     0.99300
O1952       O  0.81350025  0.95584813  0.52402204    -0.61800
O1953       O  0.88240314  0.95196765  0.62434036    -0.56600
O1954       O  0.85831429  0.95345067  0.52974890    -0.93300
O1955       O  0.88511724  0.95155723  0.56229141    -0.91800
O1956       O  0.82939370  0.95137121  0.64325738    -0.92100
O1957       O  0.79891409  0.95171093  0.60146160    -0.90900
C1958       C  0.87508178  0.94532595  0.54114879     1.18200
H1959       H  0.86151478  0.98241415  0.64507279     0.34100
H1960       H  0.79627956  0.98813261  0.56898440     0.45000
H1961       H  0.88459300  0.98551379  0.53525174     0.38500
H1962       H  0.85286347  0.04778550  0.58417436     0.35000
H1963       H  0.77651253  0.97287424  0.63916115     0.26800
H1964       H  0.79570260  0.05803714  0.54875632     0.32700
H1965       H  0.85385918  0.04728568  0.50986562     0.38600
H1966       H  0.81565718  0.94835842  0.65358150     0.33100
H1967       H  0.87038403  0.94360208  0.61791042     0.31900
H1968       H  0.92558289  0.96210196  0.58855962     0.33600
H1969       H  0.91593435  0.01046156  0.52433513     0.32600
H1970       H  0.79960791  0.95227646  0.58137183     0.36600
H1971       H  0.81789899  0.94522836  0.53574450     0.29300
H1972       H  0.87041933  0.04567278  0.67047517     0.33600
H1973       H  0.90629878  0.05349600  0.53972764     0.36400
H1974       H  0.89637220  0.94518993  0.62022421     0.29000
H1975       H  0.79818621  0.95879144  0.53021551     0.41900
H1976       H  0.77011871  0.01611127  0.59332657     0.31900
H1977       H  0.77829858  0.99432562  0.63383221     0.39600
H1978       H  0.91922672  0.00867746  0.55581494     0.31400
H1979       H  0.82161449  0.06095827  0.54933059     0.31500
H1980       H  0.88164325  0.05368689  0.64392757     0.31700
Zr1981     Zr  0.95567033  0.23668256  0.13135462     2.17500
O1982       O  0.93585508  0.21407782  0.15960798    -0.50600
O1983       O  0.97981308  0.24289829  0.17080627    -0.73800
O1984       O  0.97415687  0.20651655  0.13285801    -0.80600
O1985       O  0.90374084  0.26659171  0.13474829    -0.82400
O1986       O  0.99791590  0.20389044  0.09733132    -0.78000
O1987       O  0.92153944  0.24270684  0.15602255    -0.89600
O1988       O  0.00244246  0.26710902  0.16015191    -0.75600
O1989       O  0.99161831  0.24519446  0.11555840    -0.85100
O1990       O  0.95652662  0.26989976  0.13230422    -0.84800
O1991       O  0.95705393  0.22351369  0.08635974    -0.71500
O1992       O  0.92677753  0.24675554  0.10054453    -0.83600
Zr1993     Zr  0.96775937  0.27644753  0.03989032     2.26400
Zr1994     Zr  0.99334614  0.23236578  0.07086336     2.06300
Zr1995     Zr  0.92838919  0.27999216  0.10091547     2.10000
Zr1996     Zr  0.99229303  0.27839620  0.11550261     1.78800
O1997       O  0.88905885  0.28754943  0.09514495    -0.92500
O1998       O  0.03294616  0.27738048  0.11659184    -0.40300
O1999       O  0.96422955  0.28927846  0.08474807    -0.76900
O2000       O  0.99618742  0.26577163  0.07087739    -0.95600
O2001       O  0.96581999  0.24322390  0.03934615    -0.88900
O2002       O  0.93141171  0.26816919  0.05565782    -0.91700
C2003       C  0.99596809  0.25413431  0.17626792     1.02000
C2004       C  0.90481585  0.25358191  0.15265402     1.15000
C2005       C  0.98873099  0.19750594  0.11903883     1.05700
O2006       O  0.03241562  0.22810661  0.08277352    -0.93900
O2007       O  0.01530163  0.24219003  0.03270608    -0.89600
O2008       O  0.00099809  0.26831415  0.01323643    -0.82800
C2009       C  0.01594044  0.25548044  0.01532524     1.12400
O2010       O  0.90431965  0.20985638  0.06701664    -0.95900
Zr2011     Zr  0.92964175  0.23520056  0.05499782     1.88900
O2012       O  0.94875914  0.26829317  0.99768492    -0.72500
O2013       O  0.99387148  0.20694627  0.03817359    -0.51800
O2014       O  0.93843840  0.20598385  0.03227891    -0.96400
O2015       O  0.88989081  0.24223274  0.05197323    -0.53700
O2016       O  0.92613789  0.24375691  0.00703441    -0.73000
C2017       C  0.93431590  0.25595620  0.99060363     0.99300
O2018       O  0.98799292  0.30436821  0.02551085    -0.61800
O2019       O  0.93180229  0.30532456  0.13352767    -0.56600
O2020       O  0.94484888  0.30444404  0.03389315    -0.93300
O2021       O  0.92202013  0.30628237  0.07067961    -0.91800
O2022       O  0.98171042  0.30487957  0.14348670    -0.92100
O2023       O  0.01097890  0.30681085  0.10066395    -0.90900
C2024       C  0.92955421  0.31254646  0.04795814     1.18200
H2025       H  0.95392933  0.27453773  0.15044798     0.34100
H2026       H  0.01073538  0.26967487  0.06464553     0.45000
H2027       H  0.91994242  0.27335378  0.04409388     0.38500
H2028       H  0.95543771  0.21013697  0.08692398     0.35000
H2029       H  0.03724323  0.28553365  0.13193421     0.26800
H2030       H  0.00866135  0.20103348  0.04064798     0.32700
H2031       H  0.93268524  0.20743148  0.01352192     0.38600
H2032       H  0.99264324  0.30493976  0.15857606     0.33100
H2033       H  0.93107399  0.31685090  0.12244899     0.31900
H2034       H  0.88633279  0.29804809  0.10772529     0.33600
H2035       H  0.88771028  0.24760170  0.03359638     0.32600
H2036       H  0.01226785  0.30553647  0.08068673     0.36600
H2037       H  0.98535279  0.31356254  0.04013924     0.29300
H2038       H  0.94671404  0.20992133  0.17353502     0.33600
H2039       H  0.89699867  0.20613323  0.04980324     0.36400
H2040       H  0.91758213  0.30513723  0.14377457     0.29000
H2041       H  0.00403016  0.30135346  0.02743200     0.41900
H2042       H  0.03766399  0.24069919  0.08782248     0.31900
H2043       H  0.03658102  0.26465492  0.12300412     0.39600
H2044       H  0.88760538  0.25282521  0.06450633     0.31400
H2045       H  0.98311301  0.19769111  0.04536564     0.31500
H2046       H  0.93331287  0.20307814  0.14790278     0.31700
Zr2047     Zr  0.95303893  0.02188194  0.15560537     2.17500
O2048       O  0.93728556  0.04225504  0.12072360    -0.50600
O2049       O  0.97830631  0.01527277  0.11768083    -0.73800
O2050       O  0.96897389  0.05317347  0.15699183    -0.80600
O2051       O  0.90599707  0.98709637  0.14242471    -0.82400
O2052       O  0.99195183  0.05557298  0.19329271    -0.78000
O2053       O  0.91840499  0.01610663  0.13157374    -0.89600
O2054       O  0.00216006  0.99233763  0.13001534    -0.75600
O2055       O  0.98846026  0.01468157  0.17460260    -0.85100
O2056       O  0.95596053  0.98875727  0.15440377    -0.84800
O2057       O  0.95130117  0.03481765  0.20078381    -0.71500
O2058       O  0.92254085  0.01028888  0.18265413    -0.83600
Zr2059     Zr  0.96043207  0.98171361  0.24631078     2.26400
Zr2060     Zr  0.98685886  0.02698214  0.21977359     2.06300
Zr2061     Zr  0.92618229  0.97709438  0.18214246     2.10000
Zr2062     Zr  0.99098791  0.98153375  0.17445647     1.78800
O2063       O  0.88624197  0.97095756  0.18479637    -0.92500
O2064       O  0.03106294  0.98643944  0.17840214    -0.40300
O2065       O  0.96129981  0.96878141  0.20141867    -0.76900
O2066       O  0.99095188  0.99367235  0.21963294    -0.95600
O2067       O  0.95729551  0.01486177  0.24725580    -0.88900
O2068       O  0.92511900  0.98911722  0.22721125    -0.91700
C2069       C  0.99505401  0.00454762  0.11310475     1.02000
C2070       C  0.90496245  0.00232919  0.12890962     1.15000
C2071       C  0.98290902  0.06229813  0.17167115     1.05700
O2072       O  0.02691988  0.03143808  0.21426948    -0.93900
O2073       O  0.00394585  0.01799007  0.26245610    -0.89600
O2074       O  0.98879463  0.99108014  0.27872384    -0.82800
C2075       C  0.00265050  0.00471096  0.27995271     1.12400
O2076       O  0.89912893  0.04705420  0.20961290    -0.95900
Zr2077     Zr  0.92193637  0.02196248  0.22825189     1.88900
O2078       O  0.93791636  0.98852884  0.28585534    -0.72500
O2079       O  0.98376402  0.05330628  0.25068242    -0.51800
O2080       O  0.92487551  0.05058380  0.25452365    -0.96400
O2081       O  0.88254181  0.01345623  0.22779366    -0.53700
O2082       O  0.91510522  0.01274283  0.27542960    -0.73000
C2083       C  0.92264478  0.00030914  0.29193922     0.99300
O2084       O  0.98169306  0.95492816  0.26257858    -0.61800
O2085       O  0.93182892  0.95044470  0.15242614    -0.56600
O2086       O  0.93737775  0.95380867  0.25148518    -0.93300
O2087       O  0.91746556  0.95131338  0.21238768    -0.91800
O2088       O  0.98609158  0.95466300  0.14491076    -0.92100
O2089       O  0.01158030  0.95447404  0.19069312    -0.90900
C2090       C  0.92302699  0.94557130  0.23620509     1.18200
H2091       H  0.95486791  0.98410016  0.13602830     0.34100
H2092       H  0.00496525  0.99019666  0.22791595     0.45000
H2093       H  0.91306627  0.98359572  0.23750120     0.38500
H2094       H  0.94904744  0.04812695  0.20045245     0.35000
H2095       H  0.03754077  0.98009661  0.16239190     0.26800
H2096       H  0.99727792  0.06090279  0.24724100     0.32700
H2097       H  0.93603320  0.04780121  0.26881638     0.38600
H2098       H  0.99984067  0.95422877  0.13375902     0.33100
H2099       H  0.93968378  0.94116387  0.16387562     0.31900
H2100       H  0.88364987  0.96027206  0.17251077     0.33600
H2101       H  0.88001963  0.00637403  0.24482757     0.32600
H2102       H  0.00601747  0.95238592  0.20940322     0.36600
H2103       H  0.97874618  0.94493818  0.24920749     0.29300
H2104       H  0.95007835  0.04640485  0.10948445     0.33600
H2105       H  0.88792467  0.04989810  0.22380490     0.36400
H2106       H  0.91673094  0.94513659  0.14979954     0.29000
H2107       H  0.99750855  0.95825477  0.25934755     0.41900
H2108       H  0.03376936  0.01990062  0.22152870     0.31900
H2109       H  0.03319165  0.99987609  0.17460340     0.39600
H2110       H  0.88125132  0.00404051  0.21322021     0.31400
H2111       H  0.97132132  0.06087943  0.24337035     0.31500
H2112       H  0.93208334  0.05354978  0.13033057     0.31700
C2113       C  0.98945630  0.15324984  0.16164526     0.13400
C2114       C  0.99760699  0.14012270  0.14304991     0.00300
C2115       C  0.00550075  0.14633132  0.11765308     0.15300
C2116       C  0.00385599  0.16517046  0.11026540     0.24700
C2117       C  0.99420564  0.17820142  0.12821251    -0.41600
C2118       C  0.98794228  0.17206508  0.15445346     0.31800
C2119       C  0.99572689  0.11989966  0.14924382     0.00400
F2120       F  0.01420353  0.13401087  0.09965265    -0.13900
F2121       F  0.97971212  0.18415793  0.17309178    -0.14400
C2122       C  0.98214711  0.10856934  0.13297952     0.15300
C2123       C  0.97832575  0.08993640  0.13995488     0.24700
C2124       C  0.98815738  0.08198037  0.16345639    -0.41500
C2125       C  0.00220335  0.09340416  0.17944759     0.31700
C2126       C  0.00583718  0.11213895  0.17242999     0.13400
F2127       F  0.97166610  0.11581009  0.11084758    -0.13900
F2128       F  0.01210535  0.08668686  0.20228474    -0.14400
F2129       F  0.96440932  0.07995199  0.12385003    -0.16700
F2130       F  0.01909306  0.12280433  0.18848504    -0.15300
F2131       F  0.98168597  0.14769400  0.18631453    -0.15300
F2132       F  0.01072435  0.17037780  0.08504367    -0.16700
C2133       C  0.91732589  0.99093284  0.36783363     0.13400
C2134       C  0.89627921  0.99850695  0.37366878     0.00300
C2135       C  0.88355020  0.00618927  0.35244305     0.15300
C2136       C  0.89191631  0.00661991  0.32583288     0.24700
C2137       C  0.91330563  0.99946059  0.31998052    -0.41600
C2138       C  0.92581412  0.99145986  0.34136735     0.31800
C2139       C  0.88831880  0.99939534  0.40217337     0.00400
F2140       F  0.86327897  0.01382124  0.35765864    -0.13900
F2141       F  0.94662539  0.98462773  0.33696073    -0.14400
C2142       C  0.90082641  0.00918054  0.42155412     0.15300
C2143       C  0.89379094  0.01003660  0.44856703     0.24700
C2144       C  0.87385823  0.00120342  0.45691025    -0.41500
C2145       C  0.86119838  0.99149594  0.43729058     0.31700
C2146       C  0.86842497  0.99058446  0.41020202     0.13400
F2147       F  0.91992126  0.01808217  0.41423824    -0.13900
F2148       F  0.84175868  0.98296104  0.44416226    -0.14400
F2149       F  0.90690092  0.01924886  0.46659903    -0.16700
F2150       F  0.85621581  0.98078866  0.39189723    -0.15300
F2151       F  0.92979912  0.98313950  0.38793181    -0.15300
F2152       F  0.87899323  0.01398631  0.30583826    -0.16700
C2153       C  0.88391456  0.26781889  0.87129505     0.13400
C2154       C  0.90165865  0.25611319  0.87880047     0.00300
C2155       C  0.91169345  0.24498342  0.85886475     0.15300
C2156       C  0.90443079  0.24574665  0.83175066     0.24700
C2157       C  0.88667383  0.25761566  0.82387171    -0.41600
C2158       C  0.87632940  0.26844965  0.84428213     0.31800
C2159       C  0.91013648  0.25590672  0.90726237     0.00400
F2160       F  0.92898071  0.23364661  0.86557501    -0.13900
F2161       F  0.85866900  0.27957602  0.83833598    -0.14400
C2162       C  0.90688829  0.24031501  0.92413105     0.15300
C2163       C  0.91478089  0.24025975  0.95101945     0.24700
C2164       C  0.92635584  0.25580938  0.96166053    -0.41500
C2165       C  0.92988436  0.27129356  0.94432774     0.31700
C2166       C  0.92177260  0.27132234  0.91755224     0.13400
F2167       F  0.89581582  0.22516479  0.91462995    -0.13900
F2168       F  0.94091020  0.28661961  0.95327118    -0.14400
F2169       F  0.91120988  0.22482749  0.96646538    -0.16700
F2170       F  0.92551102  0.28640184  0.90144159    -0.15300
F2171       F  0.87378242  0.27859077  0.89027659    -0.15300
F2172       F  0.91507446  0.23491562  0.81326625    -0.16700
C2173       C  0.82944879  0.10513632  0.66171744     0.13400
C2174       C  0.81772557  0.11780816  0.64522974     0.00300
C2175       C  0.80651032  0.11111039  0.62214175     0.15300
C2176       C  0.80780493  0.09225584  0.61495855     0.24700
C2177       C  0.82034784  0.07959070  0.63083064    -0.41600
C2178       C  0.83064246  0.08627539  0.65475318     0.31800
C2179       C  0.81823609  0.13808427  0.65142821     0.00400
F2180       F  0.79450010  0.12293176  0.60626717    -0.13900
F2181       F  0.84232296  0.07468032  0.67131819    -0.14400
C2182       C  0.82645064  0.15086423  0.63214143     0.15300
C2183       C  0.82843083  0.16978407  0.63849831     0.24700
C2184       C  0.82266659  0.17637742  0.66456988    -0.41500
C2185       C  0.81385966  0.16355378  0.68364053     0.31700
C2186       C  0.81150456  0.14469070  0.67700787     0.13400
F2187       F  0.83323569  0.14494324  0.60728723    -0.13900
F2188       F  0.80798455  0.16906203  0.70903356    -0.14400
F2189       F  0.83603453  0.18160445  0.61898088    -0.16700
F2190       F  0.80262545  0.13282199  0.69566049    -0.15300
F2191       F  0.84064372  0.11116446  0.68403735    -0.15300
F2192       F  0.79746075  0.08666329  0.59182281    -0.16700
C2193       C  0.04790970  0.98806311  0.32743950     0.13400
C2194       C  0.05820086  0.00500655  0.33419357     0.00300
C2195       C  0.04817933  0.02184897  0.32618906     0.15300
C2196       C  0.02890751  0.02172930  0.31033872     0.24700
C2197       C  0.01947672  0.00476064  0.30184414    -0.41600
C2198       C  0.02865014  0.98791262  0.31142343     0.31800
C2199       C  0.07963568  0.00523918  0.34901067     0.00400
F2200       F  0.05769862  0.03845498  0.33251195    -0.13900
F2201       F  0.01992451  0.97125921  0.30387965    -0.14400
C2202       C  0.09842642  0.99587126  0.33870870     0.15300
C2203       C  0.11898987  0.99703168  0.35210389     0.24700
C2204       C  0.12114146  0.00784099  0.37581505    -0.41500
C2205       C  0.10197377  0.01665161  0.38646362     0.31700
C2206       C  0.08154972  0.01539751  0.37314926     0.13400
F2207       F  0.09702708  0.98604139  0.31522552    -0.13900
F2208       F  0.10268431  0.02615892  0.41026030    -0.14400
F2209       F  0.13677691  0.98785212  0.34155662    -0.16700
F2210       F  0.06348742  0.02401445  0.38405642    -0.15300
F2211       F  0.05684607  0.97163893  0.33580771    -0.15300
F2212       F  0.01992038  0.03825797  0.30246057    -0.16700
C2213       C  0.24921354  0.90049598  0.40934354     0.13400
C2214       C  0.23323838  0.89200711  0.39265821     0.00300
C2215       C  0.21544942  0.90256619  0.38253294     0.15300
C2216       C  0.21325371  0.92132194  0.38947612     0.24700
C2217       C  0.22880935  0.92996144  0.40705725    -0.41600
C2218       C  0.24713371  0.91931839  0.41642133     0.31800
C2219       C  0.23410802  0.87183739  0.38707534     0.00400
F2220       F  0.19972380  0.89449110  0.36653824    -0.13900
F2221       F  0.26294419  0.92695657  0.43272038    -0.14400
C2222       C  0.22313629  0.85938882  0.40449781     0.15300
C2223       C  0.22200609  0.84042968  0.39821906     0.24700
C2224       C  0.23175582  0.83348517  0.37407618    -0.41500
C2225       C  0.24334764  0.84613981  0.35703776     0.31700
C2226       C  0.24445603  0.86511362  0.36353553     0.13400
F2227       F  0.21302274  0.86573058  0.42738486    -0.13900
F2228       F  0.25308788  0.84037731  0.33361117    -0.14400
F2229       F  0.21110431  0.82902163  0.41581018    -0.16700
F2230       F  0.25519348  0.87704210  0.34649562    -0.15300
F2231       F  0.26654740  0.89040039  0.41930218    -0.15300
F2232       F  0.19537134  0.93070980  0.37955892    -0.16700
C2233       C  0.12689874  0.74309790  0.12214190     0.13400
C2234       C  0.14620931  0.75302940  0.12927956     0.00300
C2235       C  0.15758665  0.76323821  0.10927896     0.15300
C2236       C  0.14998410  0.76344340  0.08244878     0.24700
C2237       C  0.13067034  0.75338270  0.07493015    -0.41600
C2238       C  0.11916344  0.74324270  0.09524459     0.31800
C2239       C  0.15454887  0.75300377  0.15761035     0.00400
F2240       F  0.17633351  0.77289975  0.11572445    -0.13900
F2241       F  0.10020197  0.73370828  0.08932923    -0.14400
C2242       C  0.16306799  0.73664315  0.16936004     0.15300
C2243       C  0.17188229  0.73687113  0.19576163     0.24700
C2244       C  0.17215322  0.75349600  0.21100955    -0.41500
C2245       C  0.16351556  0.76986811  0.19902385     0.31700
C2246       C  0.15488332  0.76959774  0.17258815     0.13400
F2247       F  0.16320797  0.72050656  0.15502850    -0.13900
F2248       F  0.16382353  0.78629174  0.21262789    -0.14400
F2249       F  0.17974173  0.72072085  0.20653910    -0.16700
F2250       F  0.14674803  0.78557726  0.16154430    -0.15300
F2251       F  0.11523972  0.73359948  0.14138735    -0.15300
F2252       F  0.16182838  0.77340682  0.06387740    -0.16700
C2253       C  0.04089258  0.00125681  0.05969658     0.13400
C2254       C  0.03035049  0.00869406  0.03662433     0.00300
C2255       C  0.00824354  0.01504493  0.03875703     0.15300
C2256       C  0.99681417  0.01398987  0.06357943     0.24700
C2257       C  0.00720462  0.00628099  0.08675842    -0.41600
C2258       C  0.02947396  0.99998553  0.08445300     0.31800
C2259       C  0.04236655  0.00984971  0.01029761     0.00400
F2260       F  0.99753126  0.02189079  0.01654027    -0.13900
F2261       F  0.04047770  0.99288277  0.10628769    -0.14400
C2262       C  0.04986852  0.99360613  0.99729142     0.15300
C2263       C  0.06029711  0.99467440  0.97183517     0.24700
C2264       C  0.06342948  0.01204327  0.95894696    -0.41500
C2265       C  0.05642089  0.02831504  0.97238355     0.31700
C2266       C  0.04593007  0.02720710  0.99775507     0.13400
F2267       F  0.04623014  0.97662973  0.00873285    -0.13900
F2268       F  0.05979514  0.04534262  0.96098587    -0.14400
F2269       F  0.06626484  0.97863874  0.95919839    -0.16700
F2270       F  0.03918822  0.04312038  0.01012021    -0.15300
F2271       F  0.06244683  0.99549713  0.05836554    -0.15300
F2272       F  0.97539619  0.02009067  0.06464690    -0.16700
C2273       C  0.94813224  0.01039703  0.70241307     0.13400
C2274       C  0.96879963  0.00446444  0.69218438     0.00300
C2275       C  0.97024853  0.99784023  0.66544782     0.15300
C2276       C  0.95112901  0.99687863  0.64924239     0.24700
C2277       C  0.93033364  0.00279179  0.65949595    -0.41600
C2278       C  0.92907240  0.00965823  0.68620553     0.31800
C2279       C  0.98844347  0.00428198  0.71018570     0.00400
F2280       F  0.99003266  0.99177819  0.65534904    -0.13900
F2281       F  0.90924594  0.01498559  0.69705282    -0.14400
C2282       C  0.98816200  0.99313601  0.73359874     0.15300
C2283       C  0.00570060  0.99386054  0.75214387     0.24700
C2284       C  0.02413091  0.00575361  0.74756303    -0.41500
C2285       C  0.02460198  0.01656996  0.72347380     0.31700
C2286       C  0.00689151  0.01577787  0.70494606     0.13400
F2287       F  0.97064797  0.98160624  0.73863338    -0.13900
F2288       F  0.04205459  0.02801654  0.71779498    -0.14400
F2289       F  0.00418580  0.98317866  0.77491194    -0.16700
F2290       F  0.00743823  0.02663846  0.68228337    -0.15300
F2291       F  0.94639759  0.01670529  0.72833149    -0.15300
F2292       F  0.95300383  0.99022094  0.62352358    -0.16700
C2293       C  0.15729927  0.99922849  0.67789844     0.13400
C2294       C  0.14530642  0.00900990  0.65804669     0.00300
C2295       C  0.12560953  0.01827492  0.66515872     0.15300
C2296       C  0.11798881  0.01790684  0.69203902     0.24700
C2297       C  0.13026540  0.00849119  0.71240219    -0.41600
C2298       C  0.14998583  0.99902038  0.70485578     0.31800
C2299       C  0.15310498  0.00902874  0.62969100     0.00400
F2300       F  0.11368408  0.02756679  0.64595673    -0.13900
F2301       F  0.16247723  0.98971514  0.72350740    -0.14400
C2302       C  0.14680567  0.99458187  0.61229702     0.15300
C2303       C  0.15476739  0.99404918  0.58562393     0.24700
C2304       C  0.16931507  0.00807345  0.57579902    -0.41500
C2305       C  0.17529425  0.02275339  0.59348751     0.31700
C2306       C  0.16725442  0.02315527  0.62019094     0.13400
F2307       F  0.13296690  0.98089435  0.62128527    -0.13900
F2308       F  0.18876669  0.03685123  0.58505328    -0.14400
F2309       F  0.14828646  0.97963928  0.56964487    -0.16700
F2310       F  0.17334801  0.03730838  0.63687954    -0.15300
F2311       F  0.17618425  0.98988746  0.67111077    -0.15300
F2312       F  0.09841942  0.02652637  0.69791193    -0.16700
C2313       C  0.05741336  0.90151590  0.87965631     0.13400
C2314       C  0.07438963  0.89313872  0.89508366     0.00300
C2315       C  0.09240146  0.90400466  0.90386592     0.15300
C2316       C  0.09386859  0.92283806  0.89665488     0.24700
C2317       C  0.07718213  0.93137895  0.88045758    -0.41600
C2318       C  0.05874362  0.92042054  0.87236724     0.31800
C2319       C  0.07393132  0.87287582  0.90107131     0.00400
F2320       F  0.10897742  0.89620800  0.91890327    -0.13900
F2321       F  0.04196208  0.92788861  0.85734204    -0.14400
C2322       C  0.07960775  0.86002613  0.88077793     0.15300
C2323       C  0.08051589  0.84091258  0.88665958     0.24700
C2324       C  0.07536534  0.83420619  0.91296800    -0.41500
C2325       C  0.06920496  0.84720618  0.93310046     0.31700
C2326       C  0.06880224  0.86634631  0.92726459     0.13400
F2327       F  0.08483748  0.86608596  0.85536886    -0.13900
F2328       F  0.06440083  0.84150893  0.95879305    -0.14400
F2329       F  0.08638730  0.82900136  0.86651082    -0.16700
F2330       F  0.06365701  0.87857339  0.94730658    -0.15300
F2331       F  0.03949839  0.89132751  0.87166874    -0.15300
F2332       F  0.11211160  0.93244360  0.90500857    -0.16700
C2333       C  0.75596033  0.22893008  0.82076423     0.13400
C2334       C  0.74580383  0.24494682  0.83123764     0.00300
C2335       C  0.75671642  0.26219994  0.82922490     0.15300
C2336       C  0.77661991  0.26375018  0.81467840     0.24700
C2337       C  0.78563488  0.24803259  0.80169481    -0.41600
C2338       C  0.77580259  0.23041594  0.80625504     0.31800
C2339       C  0.72347137  0.24376460  0.84341062     0.00400
F2340       F  0.74758518  0.27767363  0.84045664    -0.13900
F2341       F  0.78466047  0.21471206  0.79532810    -0.14400
C2342       C  0.71986231  0.23221996  0.86592170     0.15300
C2343       C  0.69900804  0.23160138  0.87819524     0.24700
C2344       C  0.68117477  0.24251993  0.86803845    -0.41500
C2345       C  0.68466332  0.25355168  0.84473337     0.31700
C2346       C  0.70570291  0.25416515  0.83252938     0.13400
F2347       F  0.73681698  0.22205205  0.87673146    -0.13900
F2348       F  0.66783549  0.26379098  0.83383066    -0.14400
F2349       F  0.69679576  0.22094769  0.90090728    -0.16700
F2350       F  0.70877922  0.26490801  0.81005493    -0.15300
F2351       F  0.74592930  0.21201662  0.82302666    -0.15300
F2352       F  0.78602520  0.28083545  0.81164937    -0.16700
C2353       C  0.60229820  0.40025828  0.88788587     0.13400
C2354       C  0.58288135  0.38989123  0.88266475     0.00300
C2355       C  0.56417622  0.39899457  0.87168355     0.15300
C2356       C  0.56488467  0.41812527  0.86587164     0.24700
C2357       C  0.58435225  0.42859773  0.87098275    -0.41600
C2358       C  0.60303282  0.41940431  0.88225522     0.31800
C2359       C  0.58222506  0.36958590  0.88868818     0.00400
F2360       F  0.54530313  0.38925664  0.86612334    -0.13900
F2361       F  0.62226923  0.42879933  0.88725139    -0.14400
C2362       C  0.56797871  0.36249584  0.90888271     0.15300
C2363       C  0.56803952  0.34344468  0.91537304     0.24700
C2364       C  0.58262826  0.33098472  0.90192561    -0.41500
C2365       C  0.59639083  0.33822688  0.88103219     0.31700
C2366       C  0.59625125  0.35726887  0.87468078     0.13400
F2367       F  0.55460212  0.37419590  0.92313462    -0.13900
F2368       F  0.61044405  0.32704569  0.86692631    -0.14400
F2369       F  0.55410111  0.33740606  0.93531478    -0.16700
F2370       F  0.61005701  0.36374915  0.85489486    -0.15300
F2371       F  0.62056725  0.39181285  0.89863639    -0.15300
F2372       F  0.54634858  0.42644049  0.85561965    -0.16700
C2373       C  0.76686271  0.25770041  0.55696213     0.13400
C2374       C  0.77677104  0.24806995  0.53533745     0.00300
C2375       C  0.79757651  0.23946617  0.53943610     0.15300
C2376       C  0.80858302  0.24092544  0.56452797     0.24700
C2377       C  0.79901045  0.25111108  0.58612251    -0.41600
C2378       C  0.77778649  0.25927173  0.58196990     0.31800
C2379       C  0.76561846  0.24758653  0.50835893     0.00400
F2380       F  0.80760018  0.23010910  0.51883015    -0.13900
F2381       F  0.76733413  0.26877149  0.60210676    -0.14400
C2382       C  0.76014076  0.26431007  0.49492664     0.15300
C2383       C  0.74960729  0.26403149  0.46954400     0.24700
C2384       C  0.74439521  0.24698999  0.45698632    -0.41500
C2385       C  0.74995275  0.23023709  0.47042578     0.31700
C2386       C  0.76036266  0.23054877  0.49590405     0.13400
F2387       F  0.76564707  0.28097800  0.50604731    -0.13900
F2388       F  0.74520761  0.21350374  0.45897518    -0.14400
F2389       F  0.74551664  0.28045519  0.45668994    -0.16700
F2390       F  0.76507566  0.21417912  0.50856003    -0.15300
F2391       F  0.74638587  0.26553577  0.55389992    -0.15300
F2392       F  0.82885308  0.23270730  0.56731522    -0.16700
C2393       C  0.86900502  0.24447712  0.21459269     0.13400
C2394       C  0.84761926  0.24770220  0.20395851     0.00300
C2395       C  0.84499627  0.25176309  0.17626358     0.15300
C2396       C  0.86364773  0.25328749  0.15946042     0.24700
C2397       C  0.88520638  0.25077937  0.17019725    -0.41600
C2398       C  0.88772813  0.24581599  0.19773991     0.31800
C2399       C  0.82811424  0.24831142  0.22201494     0.00400
F2400       F  0.82437708  0.25484561  0.16573224    -0.13900
F2401       F  0.90831144  0.24300324  0.20855875    -0.14400
C2402       C  0.82410171  0.26429990  0.23744657     0.15300
C2403       C  0.80504620  0.26554789  0.25367383     0.24700
C2404       C  0.78961112  0.25066744  0.25484624    -0.41500
C2405       C  0.79391822  0.23456339  0.23920132     0.31700
C2406       C  0.81293292  0.23350224  0.22280631     0.13400
F2407       F  0.83845689  0.27893035  0.23620949    -0.13900
F2408       F  0.77996015  0.21968694  0.23986858    -0.14400
F2409       F  0.80158996  0.28153630  0.26771987    -0.16700
F2410       F  0.81654839  0.21801806  0.20764152    -0.15300
F2411       F  0.87172739  0.24046129  0.24139047    -0.15300
F2412       F  0.86062880  0.25708696  0.13263269    -0.16700
C2413       C  0.64805208  0.26219784  0.17666033     0.13400
C2414       C  0.66075105  0.25363869  0.15625128     0.00300
C2415       C  0.68127278  0.24548778  0.16314403     0.15300
C2416       C  0.68898158  0.24577519  0.19008569     0.24700
C2417       C  0.67631845  0.25435979  0.21078349    -0.41600
C2418       C  0.65576637  0.26269501  0.20358245     0.31800
C2419       C  0.65273167  0.25348196  0.12766838     0.00400
F2420       F  0.69381329  0.23712211  0.14371647    -0.13900
F2421       F  0.64281999  0.27105995  0.22262808    -0.14400
C2422       C  0.66074195  0.26664037  0.10893003     0.15300
C2423       C  0.65304691  0.26674958  0.08198699     0.24700
C2424       C  0.63699675  0.25362191  0.07307805    -0.41500
C2425       C  0.62924430  0.24026243  0.09211042     0.31700
C2426       C  0.63704279  0.24024695  0.11904561     0.13400
F2427       F  0.67599706  0.27952648  0.11683821    -0.13900
F2428       F  0.61431981  0.22697298  0.08472698    -0.14400
F2429       F  0.66135117  0.27985674  0.06477365    -0.16700
F2430       F  0.62943836  0.22713365  0.13672871    -0.15300
F2431       F  0.62811130  0.27011473  0.17046677    -0.15300
F2432       F  0.70903644  0.23786954  0.19573579    -0.16700
C2433       C  0.67686419  0.51457125  0.61960935     0.13400
C2434       C  0.65809538  0.50393092  0.62692762     0.00300
C2435       C  0.64719407  0.49344107  0.60683001     0.15300
C2436       C  0.65463612  0.49387587  0.57984024     0.24700
C2437       C  0.67350956  0.50458489  0.57235951    -0.41600
C2438       C  0.68460575  0.51479346  0.59278957     0.31800
C2439       C  0.64976317  0.50416144  0.65541235     0.00400
F2440       F  0.62941294  0.48257002  0.61336931    -0.13900
F2441       F  0.70304438  0.52507088  0.58701603    -0.14400
C2442       C  0.62754300  0.50914439  0.66112332     0.15300
C2443       C  0.61997641  0.51012689  0.68804708     0.24700
C2444       C  0.63458020  0.50635221  0.70982457    -0.41500
C2445       C  0.65686267  0.50154519  0.70403340     0.31700
C2446       C  0.66426471  0.50020217  0.67715692     0.13400
F2447       F  0.61327836  0.51352317  0.64062378    -0.13900
F2448       F  0.67174678  0.49865797  0.72444223    -0.14400
F2449       F  0.59829502  0.51455698  0.69274627    -0.16700
F2450       F  0.68567947  0.49497128  0.67238499    -0.15300
F2451       F  0.68750283  0.52516824  0.63840489    -0.15300
F2452       F  0.64310237  0.48389212  0.56109937    -0.16700
C2453       C  0.71857361  0.40019218  0.38450460     0.13400
C2454       C  0.73132667  0.38806631  0.40056754     0.00300
C2455       C  0.74303584  0.39516265  0.42295882     0.15300
C2456       C  0.74221560  0.41421362  0.42908429     0.24700
C2457       C  0.72925259  0.42655411  0.41310952    -0.41600
C2458       C  0.71735044  0.41913901  0.39076256     0.31800
C2459       C  0.73203081  0.36795003  0.39406423     0.00400
F2460       F  0.75543115  0.38360820  0.43880031    -0.13900
F2461       F  0.70432258  0.43008168  0.37480741    -0.14400
C2462       C  0.74316450  0.36167388  0.37073655     0.15300
C2463       C  0.74275456  0.34277333  0.36366005     0.24700
C2464       C  0.73095727  0.32972192  0.37974081    -0.41500
C2465       C  0.72042420  0.33615240  0.40371852     0.31700
C2466       C  0.72092540  0.35504207  0.41067408     0.13400
F2467       F  0.75438105  0.37394274  0.35470307    -0.13900
F2468       F  0.70955188  0.32424209  0.42061914    -0.14400
F2469       F  0.75351729  0.33742978  0.34069446    -0.16700
F2470       F  0.71004201  0.36083515  0.43334948    -0.15300
F2471       F  0.70690933  0.39358731  0.36290610    -0.15300
F2472       F  0.75397869  0.42041984  0.45084598    -0.16700
C2473       C  0.92229971  0.86343873  0.50418979     0.13400
C2474       C  0.90346822  0.87072457  0.51756476     0.00300
C2475       C  0.89143975  0.85920822  0.53535710     0.15300
C2476       C  0.89907199  0.84138876  0.54164099     0.24700
C2477       C  0.91902157  0.83445652  0.53015578    -0.41600
C2478       C  0.92986534  0.84531108  0.51012875     0.31800
C2479       C  0.89797128  0.89088869  0.51682407     0.00400
F2480       F  0.87306344  0.86574227  0.54837193    -0.13900
F2481       F  0.94836872  0.83885249  0.49733938    -0.14400
C2482       C  0.87648835  0.89695364  0.50942814     0.15300
C2483       C  0.86924445  0.91498509  0.51600213     0.24700
C2484       C  0.88347426  0.92733716  0.52998295    -0.41500
C2485       C  0.90558514  0.92158591  0.53543238     0.31700
C2486       C  0.91269357  0.90359289  0.52894702     0.13400
F2487       F  0.86208345  0.88498797  0.49726426    -0.13900
F2488       F  0.92019404  0.93310197  0.54816086    -0.14400
F2489       F  0.84780938  0.91977611  0.51048912    -0.16700
F2490       F  0.93346231  0.89809686  0.53657891    -0.15300
F2491       F  0.93377313  0.87411924  0.48614199    -0.15300
F2492       F  0.88717777  0.83123408  0.55993985    -0.16700
C2493       C  0.03357836  0.76687566  0.73097512     0.13400
C2494       C  0.02206701  0.76055916  0.75408067     0.00300
C2495       C  0.99951364  0.75530072  0.75148735     0.15300
C2496       C  0.98872932  0.75629810  0.72616389     0.24700
C2497       C  0.00029950  0.76261483  0.70295945    -0.41600
C2498       C  0.02287936  0.76791172  0.70575813     0.31800
C2499       C  0.03395401  0.75894704  0.78054596     0.00400
F2500       F  0.98785159  0.74938846  0.77356437    -0.13900
F2501       F  0.03498790  0.77348298  0.68385374    -0.14400
C2502       C  0.04439871  0.77454773  0.79227310     0.15300
C2503       C  0.05613153  0.77288583  0.81683882     0.24700
C2504       C  0.05754268  0.75558006  0.83031305    -0.41500
C2505       C  0.04736126  0.73990625  0.81821090     0.31700
C2506       C  0.03572049  0.74160073  0.79364336     0.13400
F2507       F  0.04277992  0.79153918  0.78022611    -0.13900
F2508       F  0.04884898  0.72280876  0.82998733    -0.14400
F2509       F  0.06534874  0.78838415  0.82792431    -0.16700
F2510       F  0.02649842  0.72617137  0.78233990    -0.15300
F2511       F  0.05552214  0.77147412  0.73264352    -0.15300
F2512       F  0.96688254  0.75141045  0.72447344    -0.16700
C2513       C  0.05866874  0.77145989  0.46568643     0.13400
C2514       C  0.07034425  0.75470064  0.46224754     0.00300
C2515       C  0.06190062  0.73819965  0.47362443     0.15300
C2516       C  0.04243570  0.73850544  0.48906304     0.24700
C2517       C  0.03107203  0.75539760  0.49351476    -0.41600
C2518       C  0.03911493  0.77182269  0.48115660     0.31800
C2519       C  0.09126598  0.75415195  0.44660958     0.00400
F2520       F  0.07286542  0.72180928  0.47030039    -0.13900
F2521       F  0.02861159  0.78836373  0.48486786    -0.14400
C2522       C  0.11016667  0.76404980  0.45533049     0.15300
C2523       C  0.13033818  0.76252657  0.44115840     0.24700
C2524       C  0.13187187  0.75092143  0.41816186    -0.41500
C2525       C  0.11268994  0.74107724  0.40962518     0.31700
C2526       C  0.09265812  0.74278949  0.42362374     0.13400
F2527       F  0.10921171  0.77478301  0.47798473    -0.13900
F2528       F  0.11296484  0.73005332  0.38725019    -0.14400
F2529       F  0.14835797  0.77213235  0.45025175    -0.16700
F2530       F  0.07444779  0.73338244  0.41457969    -0.15300
F2531       F  0.06622680  0.78745347  0.45407846    -0.15300
F2532       F  0.03480661  0.72223861  0.49977814    -0.16700
C2533       C  0.92512968  0.39847318  0.76089859     0.13400
C2534       C  0.90469158  0.39244765  0.74980206     0.00300
C2535       C  0.89215118  0.40498167  0.73407680     0.15300
C2536       C  0.90027863  0.42281949  0.72836620     0.24700
C2537       C  0.92119546  0.42871708  0.73842544    -0.41600
C2538       C  0.93329439  0.41644788  0.75534173     0.31800
C2539       C  0.89795407  0.37248903  0.75078497     0.00400
F2540       F  0.87257042  0.39953963  0.72268582    -0.13900
F2541       F  0.95359489  0.42139096  0.76524185    -0.14400
C2542       C  0.87666092  0.36696606  0.76000978     0.15300
C2543       C  0.86913714  0.34858500  0.75616359     0.24700
C2544       C  0.88279504  0.33545889  0.74295532    -0.41500
C2545       C  0.90439899  0.34093908  0.73479326     0.31700
C2546       C  0.91184849  0.35915996  0.73868634     0.13400
F2547       F  0.86281803  0.37958176  0.77170141    -0.13900
F2548       F  0.91817187  0.32879773  0.72197827    -0.14400
F2549       F  0.84797550  0.34405630  0.76351419    -0.16700
F2550       F  0.93214627  0.36412683  0.72873096    -0.15300
F2551       F  0.93756012  0.38669319  0.77635087    -0.15300
F2552       F  0.88776719  0.43414443  0.71229671    -0.16700
C2553       C  0.85269467  0.49498328  0.58898185     0.13400
C2554       C  0.84914568  0.51141238  0.57426549     0.00300
C2555       C  0.86498046  0.52572081  0.57505898     0.15300
C2556       C  0.88419814  0.52375194  0.59090734     0.24700
C2557       C  0.88774217  0.50738388  0.60638436    -0.41600
C2558       C  0.87179816  0.49288119  0.60479358     0.31800
C2559       C  0.82928696  0.51295692  0.55704539     0.00400
F2560       F  0.86181138  0.54157685  0.56043640    -0.13900
F2561       F  0.87443511  0.47661355  0.61860970    -0.14400
C2562       C  0.81008482  0.52200813  0.56651472     0.15300
C2563       C  0.79024649  0.52106070  0.55161601     0.24700
C2564       C  0.78956807  0.51118300  0.52693797    -0.41500
C2565       C  0.80935936  0.50308298  0.51687158     0.31700
C2566       C  0.82893256  0.50375374  0.53204323     0.13400
F2567       F  0.81035302  0.53108115  0.59068844    -0.13900
F2568       F  0.80983826  0.49444165  0.49234488    -0.14400
F2569       F  0.77156442  0.52906561  0.56192041    -0.16700
F2570       F  0.84748234  0.49500025  0.52268822    -0.15300
F2571       F  0.83746237  0.48097058  0.58813932    -0.15300
F2572       F  0.89904520  0.53801824  0.59126953    -0.16700
C2573       C  0.00198087  0.65254666  0.62091356     0.13400
C2574       C  0.99173558  0.64527457  0.64432415     0.00300
C2575       C  0.98027106  0.65749335  0.66174602     0.15300
C2576       C  0.97835105  0.67646125  0.65525833     0.24700
C2577       C  0.98729009  0.68355902  0.63072724    -0.41600
C2578       C  0.99962467  0.67134611  0.61400492     0.31800
C2579       C  0.99219455  0.62486616  0.64978950     0.00400
F2580       F  0.97015552  0.65096073  0.68458658    -0.13900
F2581       F  0.00895562  0.67733004  0.59038613    -0.14400
C2582       C  0.99960861  0.61785410  0.67492628     0.15300
C2583       C  0.99854590  0.59872331  0.68060777     0.24700
C2584       C  0.99010707  0.58612324  0.66112155    -0.41500
C2585       C  0.98399144  0.59314122  0.63535017     0.31700
C2586       C  0.98479753  0.61225634  0.62988253     0.13400
F2587       F  0.00781456  0.62957824  0.69409679    -0.13900
F2588       F  0.97688998  0.58155537  0.61537291    -0.14400
F2589       F  0.00504847  0.59273485  0.70559224    -0.16700
F2590       F  0.97753525  0.61849115  0.60532432    -0.15300
F2591       F  0.01418781  0.64133174  0.60445630    -0.15300
F2592       F  0.96746298  0.68775176  0.67292631    -0.16700
C2593       C  0.91497817  0.40094369  0.03824809     0.13400
C2594       C  0.90003931  0.38788019  0.02723019     0.00300
C2595       C  0.87890486  0.39403470  0.01850793     0.15300
C2596       C  0.87228458  0.41258905  0.02247299     0.24700
C2597       C  0.88668114  0.42535244  0.03531151    -0.41600
C2598       C  0.90843762  0.41945346  0.04213444     0.31800
C2599       C  0.90572433  0.36766918  0.02796037     0.00400
F2600       F  0.86434319  0.38188401  0.00703524    -0.13900
F2601       F  0.92324847  0.43147278  0.05346169    -0.14400
C2602       C  0.89236647  0.35527600  0.04302951     0.15300
C2603       C  0.89942923  0.33699454  0.04790546     0.24700
C2604       C  0.92027638  0.33068804  0.03822961    -0.41500
C2605       C  0.93288214  0.34271532  0.02145526     0.31700
C2606       C  0.92565618  0.36100742  0.01640120     0.13400
F2607       F  0.87309083  0.36121342  0.05464291    -0.13900
F2608       F  0.95284012  0.33722074  0.01120409    -0.14400
F2609       F  0.88604970  0.32564849  0.06289199    -0.16700
F2610       F  0.93855917  0.37246411  0.00099127    -0.15300
F2611       F  0.93547652  0.39551673  0.04698227    -0.15300
F2612       F  0.85125756  0.41767849  0.01540799    -0.16700
C2613       C  0.75413655  0.49899726  0.28282250     0.13400
C2614       C  0.77572589  0.50643867  0.27956890     0.00300
C2615       C  0.78646169  0.51421381  0.30220021     0.15300
C2616       C  0.77579298  0.51479396  0.32749738     0.24700
C2617       C  0.75404313  0.50745700  0.33092661    -0.41600
C2618       C  0.74347920  0.49933439  0.30824255     0.31800
C2619       C  0.78734733  0.50551039  0.25284311     0.00400
F2620       F  0.80765512  0.52076875  0.30002238    -0.13900
F2621       F  0.72270427  0.49193310  0.31044892    -0.14400
C2622       C  0.79553120  0.52173543  0.24007370     0.15300
C2623       C  0.80610554  0.52072044  0.21466121     0.24700
C2624       C  0.80870294  0.50345684  0.20153014    -0.41500
C2625       C  0.80093771  0.48721417  0.21466639     0.31700
C2626       C  0.79048145  0.48824261  0.24005202     0.13400
F2627       F  0.79278410  0.53864723  0.25188457    -0.13900
F2628       F  0.80381226  0.47021836  0.20315560    -0.14400
F2629       F  0.81301617  0.53670997  0.20244220    -0.16700
F2630       F  0.78374948  0.47226346  0.25243836    -0.15300
F2631       F  0.74322252  0.49157884  0.26121272    -0.15300
F2632       F  0.78717779  0.52210575  0.34882564    -0.16700
C2633       C  0.74971750  0.52530621  0.96832055     0.13400
C2634       C  0.74004766  0.50904170  0.95795255     0.00300
C2635       C  0.75063786  0.49181182  0.96187229     0.15300
C2636       C  0.77034829  0.49077212  0.97697040     0.24700
C2637       C  0.77952927  0.50699076  0.98848313    -0.41600
C2638       C  0.76931947  0.52433439  0.98332353     0.31800
C2639       C  0.71877615  0.51026747  0.94327311     0.00400
F2640       F  0.74167460  0.47599637  0.95143629    -0.13900
F2641       F  0.77796315  0.54038500  0.99342957    -0.14400
C2642       C  0.71722435  0.52161679  0.92016429     0.15300
C2643       C  0.69690264  0.52380547  0.90696997     0.24700
C2644       C  0.67775631  0.51422328  0.91624865    -0.41500
C2645       C  0.67938991  0.50281451  0.93949103     0.31700
C2646       C  0.69975317  0.50098443  0.95304113     0.13400
F2647       F  0.73556061  0.53041347  0.91012829    -0.13900
F2648       F  0.66127037  0.49365457  0.94933492    -0.14400
F2649       F  0.69632062  0.53487353  0.88455639    -0.16700
F2650       F  0.70082774  0.49045572  0.97599422    -0.15300
F2651       F  0.73965045  0.54209822  0.96482906    -0.15300
F2652       F  0.77968916  0.47382522  0.98149786    -0.16700
C2653       C  0.89400103  0.50988790  0.85350351     0.13400
C2654       C  0.90663165  0.50093281  0.87386489     0.00300
C2655       C  0.92653116  0.49190650  0.86626322     0.15300
C2656       C  0.93363812  0.49187035  0.83910441     0.24700
C2657       C  0.92125288  0.50120726  0.81877283    -0.41600
C2658       C  0.90120797  0.51006198  0.82638137     0.31800
C2659       C  0.89899473  0.50089124  0.90286218     0.00400
F2660       F  0.93954113  0.48349768  0.88528339    -0.13900
F2661       F  0.88821455  0.51863916  0.80750235    -0.14400
C2662       C  0.89763416  0.48410782  0.91776336     0.15300
C2663       C  0.89047668  0.48405533  0.94493891     0.24700
C2664       C  0.88434416  0.50074805  0.95783661    -0.41500
C2665       C  0.88558775  0.51751130  0.94298308     0.31700
C2666       C  0.89289917  0.51760701  0.91587553     0.13400
F2667       F  0.90283260  0.46763502  0.90586110    -0.13900
F2668       F  0.87919713  0.53380834  0.95454249    -0.14400
F2669       F  0.89000061  0.46768736  0.95884520    -0.16700
F2670       F  0.89431338  0.53414317  0.90248930    -0.15300
F2671       F  0.87432981  0.51821424  0.85971808    -0.15300
F2672       F  0.95300131  0.48300234  0.83297578    -0.16700
C2673       C  0.86923207  0.86492343  0.26311413     0.13400
C2674       C  0.89036386  0.87148151  0.25509864     0.00300
C2675       C  0.90558229  0.85897262  0.24345432     0.15300
C2676       C  0.89938983  0.84055798  0.23834155     0.24700
C2677       C  0.87784178  0.83409844  0.24503108    -0.41600
C2678       C  0.86307538  0.84632502  0.25838207     0.31800
C2679       C  0.89594184  0.89163274  0.25563711     0.00400
F2680       F  0.92612758  0.86488257  0.23555127    -0.13900
F2681       F  0.84225908  0.84063719  0.26546033    -0.14400
C2682       C  0.91511371  0.89802892  0.26921048     0.15300
C2683       C  0.92328796  0.91606568  0.26442636     0.24700
C2684       C  0.91237365  0.92800371  0.24588601    -0.41500
C2685       C  0.89194685  0.92210299  0.23447041     0.31700
C2686       C  0.88395399  0.90407463  0.23911069     0.13400
F2687       F  0.92654130  0.88643423  0.28604641    -0.13900
F2688       F  0.88004987  0.93353165  0.21786378    -0.14400
F2689       F  0.94265821  0.92129515  0.27651556    -0.16700
F2690       F  0.86536342  0.89832804  0.22574421    -0.15300
F2691       F  0.85436748  0.87668112  0.27484679    -0.15300
F2692       F  0.91443560  0.82914039  0.22623116    -0.16700
C2693       C  0.94184681  0.74615696  0.07696613     0.13400
C2694       C  0.96212113  0.75277178  0.08740712     0.00300
C2695       C  0.96290862  0.76028641  0.11363043     0.15300
C2696       C  0.94346469  0.76168594  0.12908368     0.24700
C2697       C  0.92292319  0.75544226  0.11854410    -0.41600
C2698       C  0.92236020  0.74733020  0.09250735     0.31800
C2699       C  0.98218519  0.75309304  0.07025576     0.00400
F2700       F  0.98253673  0.76639790  0.12414228    -0.13900
F2701       F  0.90286556  0.74115715  0.08171096    -0.14400
C2702       C  0.98835499  0.76967007  0.05721444     0.15300
C2703       C  0.00721580  0.77023361  0.04062828     0.24700
C2704       C  0.02031906  0.75411255  0.03678245    -0.41500
C2705       C  0.01411589  0.73751194  0.05031821     0.31700
C2706       C  0.99513856  0.73704039  0.06686078     0.13400
F2707       F  0.97587260  0.78530088  0.06033694    -0.13900
F2708       F  0.02596466  0.72157509  0.04703103    -0.14400
F2709       F  0.01261585  0.78664515  0.02848520    -0.16700
F2710       F  0.98932211  0.72090482  0.07949545    -0.15300
F2711       F  0.94086223  0.73908416  0.05141856    -0.15300
F2712       F  0.94481320  0.76889450  0.15453013    -0.16700
C2713       C  0.87812943  0.76397384  0.37045897     0.13400
C2714       C  0.89994375  0.75814668  0.37660119     0.00300
C2715       C  0.91386870  0.75214068  0.35540216     0.15300
C2716       C  0.90611565  0.75181621  0.32853775     0.24700
C2717       C  0.88417085  0.75749416  0.32224626    -0.41600
C2718       C  0.87028627  0.76363052  0.34361113     0.31800
C2719       C  0.90817955  0.75825466  0.40510555     0.00400
F2720       F  0.93500180  0.74640024  0.36078312    -0.13900
F2721       F  0.84896331  0.76906798  0.33866551    -0.14400
C2722       C  0.89768070  0.74731982  0.42507237     0.15300
C2723       C  0.90544585  0.74730317  0.45194252     0.24700
C2724       C  0.92390190  0.75841598  0.45960627    -0.41500
C2725       C  0.93457156  0.76916831  0.43924238     0.31700
C2726       C  0.92676063  0.76906770  0.41238457     0.13400
F2727       F  0.88004510  0.73635348  0.41841762    -0.13900
F2728       F  0.95271774  0.77975939  0.44508470    -0.14400
F2729       F  0.89472788  0.73635822  0.47035092    -0.16700
F2730       F  0.93720640  0.77979063  0.39346551    -0.15300
F2731       F  0.86451077  0.77030936  0.39046540    -0.15300
F2732       F  0.92033937  0.74632695  0.30863337    -0.16700
C2733       C  0.82754074  0.65045488  0.12833370     0.13400
C2734       C  0.81565820  0.63814162  0.14513931     0.00300
C2735       C  0.80510000  0.64502043  0.16848347     0.15300
C2736       C  0.80687128  0.66387868  0.17539654     0.24700
C2737       C  0.81963678  0.67626541  0.15923494    -0.41600
C2738       C  0.82952746  0.66927826  0.13521053     0.31800
C2739       C  0.81547593  0.61794436  0.13908879     0.00400
F2740       F  0.79324270  0.63336210  0.18479922    -0.13900
F2741       F  0.84154823  0.68047587  0.11842799    -0.14400
C2742       C  0.82687707  0.60551703  0.15617201     0.15300
C2743       C  0.82843886  0.58664469  0.14950924     0.24700
C2744       C  0.81904003  0.57978367  0.12512617    -0.41500
C2745       C  0.80651055  0.59222558  0.10880375     0.31700
C2746       C  0.80489038  0.61111998  0.11570297     0.13400
F2747       F  0.83738750  0.61183817  0.17881012    -0.13900
F2748       F  0.79633580  0.58635408  0.08570299    -0.14400
F2749       F  0.83956669  0.57523143  0.16687151    -0.16700
F2750       F  0.79328892  0.62287732  0.09928134    -0.15300
F2751       F  0.83801469  0.64407059  0.10571706    -0.15300
F2752       F  0.79643749  0.66979270  0.19829665    -0.16700
C2753       C  0.64286951  0.65340131  0.78183207     0.13400
C2754       C  0.65722857  0.64089062  0.76859894     0.00300
C2755       C  0.67802635  0.64745916  0.75918991     0.15300
C2756       C  0.68511011  0.66566811  0.76507800     0.24700
C2757       C  0.67137825  0.67768166  0.78029451    -0.41600
C2758       C  0.64975640  0.67158003  0.78735393     0.31800
C2759       C  0.65172197  0.62063465  0.76839622     0.00400
F2760       F  0.69189869  0.63594417  0.74533082    -0.13900
F2761       F  0.63544443  0.68301527  0.80070000    -0.14400
C2762       C  0.63079167  0.61417061  0.75934738     0.15300
C2763       C  0.62403802  0.59576927  0.76458397     0.24700
C2764       C  0.63808980  0.58352668  0.77907140    -0.41500
C2765       C  0.65977375  0.58956674  0.78580787     0.31700
C2766       C  0.66640670  0.60791450  0.78079973     0.13400
F2767       F  0.61643886  0.62593586  0.74659570    -0.13900
F2768       F  0.67433232  0.57792250  0.79846672    -0.14400
F2769       F  0.60317812  0.59042018  0.75719309    -0.16700
F2770       F  0.68659915  0.61360432  0.79016750    -0.15300
F2771       F  0.62272393  0.64766971  0.79135394    -0.15300
F2772       F  0.70591520  0.67103723  0.75743391    -0.16700
C2773       C  0.76613442  0.73551988  0.99013122     0.13400
C2774       C  0.76709797  0.75204202  0.00521814     0.00300
C2775       C  0.75714803  0.76826409  0.99463151     0.15300
C2776       C  0.74693010  0.76806420  0.96897112     0.24700
C2777       C  0.74645140  0.75158009  0.95347123    -0.41600
C2778       C  0.75586908  0.73524498  0.96461534     0.31800
C2779       C  0.77827884  0.75220548  0.03212277     0.00400
F2780       F  0.75784531  0.78442962  0.00887025    -0.13900
F2781       F  0.75484858  0.71884181  0.95100112    -0.14400
C2782       C  0.80110257  0.74790577  0.03448604     0.15300
C2783       C  0.81159299  0.74795038  0.05997926     0.24700
C2784       C  0.79944230  0.75247097  0.08357285    -0.41500
C2785       C  0.77646129  0.75652236  0.08105074     0.31700
C2786       C  0.76604094  0.75633205  0.05563508     0.13400
F2787       F  0.81335198  0.74407933  0.01196227    -0.13900
F2788       F  0.76386495  0.76043249  0.10327029    -0.14400
F2789       F  0.83376013  0.74417006  0.06139362    -0.16700
F2790       F  0.74381997  0.75986954  0.05403369    -0.15300
F2791       F  0.77488468  0.71951838  0.00034882    -0.15300
F2792       F  0.73820747  0.78414346  0.95897305    -0.16700
C2793       C  0.80993780  0.74134596  0.71996395     0.13400
C2794       C  0.82142665  0.75808566  0.71570755     0.00300
C2795       C  0.81384170  0.77451544  0.72783310     0.15300
C2796       C  0.79455398  0.77435107  0.74362033     0.24700
C2797       C  0.78262966  0.75760752  0.74775117    -0.41600
C2798       C  0.79069785  0.74104588  0.73595047     0.31800
C2799       C  0.84121344  0.75857879  0.69822704     0.00400
F2800       F  0.82534204  0.79068849  0.72464360    -0.13900
F2801       F  0.78047243  0.72445300  0.74052508    -0.14400
C2802       C  0.83993957  0.76699736  0.67256226     0.15300
C2803       C  0.85891530  0.76832416  0.65628371     0.24700
C2804       C  0.87953764  0.76123997  0.66555838    -0.41500
C2805       C  0.88057663  0.75256621  0.69128171     0.31700
C2806       C  0.86146366  0.75112842  0.70738525     0.13400
F2807       F  0.82018417  0.77371068  0.66318061    -0.13900
F2808       F  0.90017736  0.74596916  0.70123271    -0.14400
F2809       F  0.85693321  0.77624124  0.63127887    -0.16700
F2810       F  0.86275419  0.74275993  0.73214015    -0.15300
F2811       F  0.81740458  0.72530976  0.70859186    -0.15300
F2812       F  0.78760902  0.79063579  0.75477068    -0.16700
C2813       C  0.62872275  0.14626299  0.02244857     0.13400
C2814       C  0.64981820  0.14016567  0.01333044     0.00300
C2815       C  0.66428927  0.15316849  0.00119229     0.15300
C2816       C  0.65747599  0.17144731  0.99688015     0.24700
C2817       C  0.63564197  0.17714697  0.00355233    -0.41600
C2818       C  0.62156143  0.16457091  0.01729261     0.31800
C2819       C  0.65590529  0.12006026  0.01300708     0.00400
F2820       F  0.68451080  0.14791257  0.99140344    -0.13900
F2821       F  0.60041605  0.16952536  0.02401220    -0.14400
C2822       C  0.64152068  0.10709805  0.00067375     0.15300
C2823       C  0.64882050  0.08902676  0.99516770     0.24700
C2824       C  0.67088947  0.08362071  0.00110060    -0.41500
C2825       C  0.68482873  0.09616391  0.01502075     0.31700
C2826       C  0.67731391  0.11413547  0.02117773     0.13400
F2827       F  0.62094503  0.11228368  0.99191696    -0.13900
F2828       F  0.70625986  0.09157559  0.02092813    -0.14400
F2829       F  0.63448144  0.07701413  0.98296754    -0.16700
F2830       F  0.69143005  0.12609552  0.03386301    -0.15300
F2831       F  0.61470305  0.13428069  0.03534166    -0.15300
F2832       F  0.67202623  0.18334494  0.98464913    -0.16700
C2833       C  0.78989259  0.01587909  0.80465876     0.13400
C2834       C  0.78077551  0.00572716  0.78302180     0.00300
C2835       C  0.76005497  0.99683344  0.78671032     0.15300
C2836       C  0.74860251  0.99816633  0.81155989     0.24700
C2837       C  0.75756678  0.00855052  0.83333520    -0.41600
C2838       C  0.77852449  0.01731193  0.82943451     0.31800
C2839       C  0.79300049  0.00444865  0.75672675     0.00400
F2840       F  0.75065954  0.98711719  0.76600899    -0.13900
F2841       F  0.78845205  0.02704680  0.84973920    -0.14400
C2842       C  0.79891342  0.98701037  0.74597411     0.15300
C2843       C  0.80999317  0.98581670  0.72097521     0.24700
C2844       C  0.81565596  0.00206556  0.70637657    -0.41500
C2845       C  0.81042244  0.01952475  0.71754448     0.31700
C2846       C  0.79903100  0.02069846  0.74235158     0.13400
F2847       F  0.79403521  0.97110263  0.75975995    -0.13900
F2848       F  0.81514505  0.03544469  0.70367707    -0.14400
F2849       F  0.81514089  0.96873461  0.71097229    -0.16700
F2850       F  0.79309679  0.03773120  0.75181342    -0.15300
F2851       F  0.81018642  0.02412889  0.80198651    -0.15300
F2852       F  0.72860250  0.98944203  0.81405490    -0.16700
C2853       C  0.85374455  0.02172009  0.09523834     0.13400
C2854       C  0.84692826  0.00654768  0.07928603     0.00300
C2855       C  0.86037273  0.99053106  0.07801422     0.15300
C2856       C  0.87981728  0.98938127  0.09351319     0.24700
C2857       C  0.88625100  0.00436357  0.11003478    -0.41600
C2858       C  0.87334758  0.02067265  0.11041484     0.31800
C2859       C  0.82547972  0.00725760  0.06465293     0.00400
F2860       F  0.85460739  0.97599667  0.06186018    -0.13900
F2861       F  0.87894041  0.03511385  0.12684383    -0.14400
C2862       C  0.82116217  0.02171467  0.04605807     0.15300
C2863       C  0.80091394  0.02230041  0.03207077     0.24700
C2864       C  0.78494836  0.00826586  0.03617401    -0.41500
C2865       C  0.78899816  0.99403788  0.05514113     0.31700
C2866       C  0.80910326  0.99359103  0.06946312     0.13400
F2867       F  0.83687915  0.03487661  0.04076952    -0.13900
F2868       F  0.77343340  0.98064142  0.05977735    -0.14400
F2869       F  0.79732939  0.03603756  0.01352933    -0.16700
F2870       F  0.81256939  0.97988351  0.08809584    -0.15300
F2871       F  0.84088385  0.03722789  0.09708605    -0.15300
F2872       F  0.89231416  0.97361539  0.09255854    -0.16700
C2873       C  0.74312527  0.89735014  0.91968410     0.13400
C2874       C  0.73184749  0.89087583  0.89653563     0.00300
C2875       C  0.72131968  0.90380503  0.87939686     0.15300
C2876       C  0.72131065  0.92282304  0.88571635     0.24700
C2877       C  0.73149440  0.92943227  0.90980670    -0.41600
C2878       C  0.74289900  0.91637907  0.92637212     0.31800
C2879       C  0.73053645  0.87063197  0.89036822     0.00400
F2880       F  0.71102011  0.89796132  0.85634792    -0.13900
F2881       F  0.75344543  0.92184527  0.94943812    -0.14400
C2882       C  0.71019649  0.86107488  0.89321882     0.15300
C2883       C  0.70851492  0.84220395  0.88629264     0.24700
C2884       C  0.72709285  0.83250543  0.87589208    -0.41500
C2885       C  0.74753078  0.84212236  0.87321610     0.31700
C2886       C  0.74924740  0.86095521  0.88062200     0.13400
F2887       F  0.69184510  0.87010255  0.90256438    -0.13900
F2888       F  0.76592432  0.83327830  0.86363156    -0.14400
F2889       F  0.68841194  0.83363547  0.88879890    -0.16700
F2890       F  0.76906807  0.86990238  0.87767529    -0.15300
F2891       F  0.75387951  0.88513552  0.93624444    -0.15300
F2892       F  0.71125095  0.93468676  0.86804207    -0.16700
C2893       C  0.66357505  0.65386659  0.50094771     0.13400
C2894       C  0.64903486  0.63987022  0.51026133     0.00300
C2895       C  0.62707017  0.64484715  0.51756435     0.15300
C2896       C  0.61931409  0.66311563  0.51352174     0.24700
C2897       C  0.63345965  0.67676145  0.50226782    -0.41600
C2898       C  0.65593771  0.67210120  0.49719425     0.31800
C2899       C  0.65570446  0.61991346  0.50795207     0.00400
F2900       F  0.61272068  0.63172040  0.52710338    -0.13900
F2901       F  0.67031614  0.68502859  0.48710510    -0.14400
C2902       C  0.67530787  0.61295925  0.52015207     0.15300
C2903       C  0.68286310  0.59480431  0.51443711     0.24700
C2904       C  0.67110859  0.58336365  0.49602429    -0.41500
C2905       C  0.65086597  0.59017506  0.48507361     0.31700
C2906       C  0.64340437  0.60814248  0.49084966     0.13400
F2907       F  0.68739702  0.62390095  0.53714268    -0.13900
F2908       F  0.63827921  0.57960484  0.46810719    -0.14400
F2909       F  0.70209449  0.58878929  0.52609467    -0.16700
F2910       F  0.62465644  0.61442223  0.47830639    -0.15300
F2911       F  0.68469676  0.64958511  0.49318799    -0.15300
F2912       F  0.59750905  0.66698614  0.51840363    -0.16700
C2913       C  0.74469793  0.73354757  0.31480261     0.13400
C2914       C  0.73526349  0.75030834  0.32387159     0.00300
C2915       C  0.74608117  0.76722942  0.31827378     0.15300
C2916       C  0.76557489  0.76749094  0.30274778     0.24700
C2917       C  0.77475071  0.75074055  0.29295232    -0.41600
C2918       C  0.76435206  0.73373019  0.29967931     0.31800
C2919       C  0.71418654  0.75003545  0.33929298     0.00400
F2920       F  0.73767573  0.78352416  0.32774881    -0.13900
F2921       F  0.77300519  0.71723383  0.29129029    -0.14400
C2922       C  0.71275497  0.73961900  0.36333645     0.15300
C2923       C  0.69279168  0.73873134  0.37767129     0.24700
C2924       C  0.67375324  0.74842981  0.36840961    -0.41500
C2925       C  0.67538397  0.75931152  0.34460559     0.31700
C2926       C  0.69541172  0.75991145  0.32997865     0.13400
F2927       F  0.73089833  0.73052165  0.37325840    -0.13900
F2928       F  0.65759542  0.76910706  0.33522531    -0.14400
F2929       F  0.69245628  0.72880227  0.40119224    -0.16700
F2930       F  0.69636938  0.76980925  0.30642118    -0.15300
F2931       F  0.73450551  0.71699691  0.31992797    -0.15300
F2932       F  0.77478048  0.78420769  0.29627541    -0.16700
C2933       C  0.64179632  0.77017940  0.61405870     0.13400
C2934       C  0.64301091  0.75379541  0.62960042     0.00300
C2935       C  0.63653298  0.73680650  0.61798649     0.15300
C2936       C  0.62920733  0.73611965  0.59095807     0.24700
C2937       C  0.62834149  0.75248912  0.57506752    -0.41600
C2938       C  0.63453336  0.76955391  0.58702769     0.31800
C2939       C  0.65159203  0.75424061  0.65775664     0.00400
F2940       F  0.63776307  0.72082119  0.63275230    -0.13900
F2941       F  0.63320080  0.78571602  0.57268600    -0.14400
C2942       C  0.63679677  0.75397858  0.67985630     0.15300
C2943       C  0.64498129  0.75356351  0.70653098     0.24700
C2944       C  0.66815243  0.75330176  0.71149509    -0.41500
C2945       C  0.68291768  0.75367890  0.68921775     0.31700
C2946       C  0.67467232  0.75425059  0.66257495     0.13400
F2947       F  0.61441751  0.75411692  0.67553586    -0.13900
F2948       F  0.70532972  0.75398694  0.69324206    -0.14400
F2949       F  0.63024134  0.75295463  0.72749229    -0.16700
F2950       F  0.68920132  0.75470729  0.64139445    -0.15300
F2951       F  0.64760538  0.78679461  0.62511262    -0.15300
F2952       F  0.62370481  0.71936192  0.58011646    -0.16700
C2953       C  0.67972406  0.14525059  0.26699580     0.13400
C2954       C  0.65817309  0.13947821  0.27484011     0.00300
C2955       C  0.64299586  0.15294438  0.28414619     0.15300
C2956       C  0.64961602  0.17147378  0.28722624     0.24700
C2957       C  0.67184585  0.17692865  0.28206144    -0.41600
C2958       C  0.68655089  0.16379827  0.27065891     0.31800
C2959       C  0.65217612  0.11935192  0.27645846     0.00400
F2960       F  0.62216317  0.14795268  0.29226418    -0.13900
F2961       F  0.70793883  0.16853041  0.26472735    -0.14400
C2962       C  0.66537377  0.10714623  0.29203626     0.15300
C2963       C  0.65814878  0.08901218  0.29752646     0.24700
C2964       C  0.63732036  0.08263208  0.28793091    -0.41500
C2965       C  0.62468662  0.09450503  0.27098701     0.31700
C2966       C  0.63210551  0.11264313  0.26524561     0.13400
F2967       F  0.68472343  0.11310395  0.30345525    -0.13900
F2968       F  0.60459256  0.08900922  0.26111380    -0.14400
F2969       F  0.67141074  0.07786509  0.31296472    -0.16700
F2970       F  0.61931470  0.12387736  0.24937074    -0.15300
F2971       F  0.69448227  0.13272997  0.25684952    -0.15300
F2972       F  0.63440729  0.18395786  0.29649065    -0.16700
C2973       C  0.74832739  0.99706854  0.46063270     0.13400
C2974       C  0.72807896  0.00302902  0.47196830     0.00300
C2975       C  0.72718391  0.00846544  0.49924456     0.15300
C2976       C  0.74648615  0.00852162  0.51493424     0.24700
C2977       C  0.76704210  0.00307228  0.50351880    -0.41600
C2978       C  0.76771780  0.99694949  0.47637926     0.31800
C2979       C  0.70791120  0.00424580  0.45521743     0.00400
F2980       F  0.70752312  0.01367182  0.51066811    -0.13900
F2981       F  0.78719622  0.99140865  0.46486034    -0.14400
C2982       C  0.69795416  0.98806530  0.44496236     0.15300
C2983       C  0.67861547  0.98933033  0.42928317     0.24700
C2984       C  0.66931104  0.00687213  0.42326801    -0.41500
C2985       C  0.67935671  0.02305210  0.43370972     0.31700
C2986       C  0.69844381  0.02171500  0.44974088     0.13400
F2987       F  0.70705440  0.97108816  0.45005289    -0.13900
F2988       F  0.67074406  0.04016642  0.42831382    -0.14400
F2989       F  0.66964060  0.97349131  0.41896458    -0.16700
F2990       F  0.70804071  0.03750097  0.45943394    -0.15300
F2991       F  0.74940016  0.99191968  0.43412058    -0.15300
F2992       F  0.74492929  0.01358113  0.54145957    -0.16700
C2993       C  0.67750168  0.01620781  0.12056211     0.13400
C2994       C  0.65820731  0.00626494  0.12779871     0.00300
C2995       C  0.64636237  0.99669350  0.10755546     0.15300
C2996       C  0.65356526  0.99713335  0.08045145     0.24700
C2997       C  0.67310420  0.00694176  0.07301432    -0.41600
C2998       C  0.68490760  0.01656185  0.09355483     0.31800
C2999       C  0.65017334  0.00617929  0.15636888     0.00400
F3000       F  0.62742542  0.98725472  0.11396273    -0.13900
F3001       F  0.70373328  0.02632807  0.08771193    -0.14400
C3002       C  0.64357541  0.02285126  0.16888943     0.15300
C3003       C  0.63580211  0.02281154  0.19576069     0.24700
C3004       C  0.63445466  0.00604282  0.21071575    -0.41500
C3005       C  0.64121584  0.98935620  0.19809426     0.31700
C3006       C  0.64894283  0.98944479  0.17119110     0.13400
F3007       F  0.64440130  0.03918584  0.15491247    -0.13900
F3008       F  0.63999012  0.97285602  0.21158900    -0.14400
F3009       F  0.63010476  0.03928661  0.20732653    -0.16700
F3010       F  0.65549609  0.97318106  0.15966540    -0.15300
F3011       F  0.68939538  0.02541890  0.13980490    -0.15300
F3012       F  0.64098641  0.98831242  0.06147359    -0.16700
C3013       C  0.56593836  0.89468627  0.35700562     0.13400
C3014       C  0.56959452  0.88893941  0.38396801     0.00300
C3015       C  0.57381576  0.90236160  0.40396263     0.15300
C3016       C  0.57464882  0.92127345  0.39712917     0.24700
C3017       C  0.57144622  0.92717133  0.36998535    -0.41600
C3018       C  0.56683100  0.91363515  0.35003044     0.31800
C3019       C  0.57050536  0.86891195  0.39115040     0.00400
F3020       F  0.57788794  0.89706043  0.43003284    -0.13900
F3021       F  0.56417233  0.91860814  0.32356515    -0.14400
C3022       C  0.58893717  0.85823578  0.38328261     0.15300
C3023       C  0.59100756  0.83973223  0.39185249     0.24700
C3024       C  0.57449618  0.83134145  0.40844448    -0.41500
C3025       C  0.55570351  0.84210231  0.41579203     0.31700
C3026       C  0.55380882  0.86071240  0.40724345     0.13400
F3027       F  0.60536960  0.86595363  0.36790521    -0.13900
F3028       F  0.53904388  0.83467311  0.43108410    -0.14400
F3029       F  0.60962467  0.83029161  0.38439989    -0.16700
F3030       F  0.53562246  0.87077495  0.41460523    -0.15300
F3031       F  0.56185186  0.88188291  0.33736737    -0.15300
F3032       F  0.57869099  0.93379761  0.41716949    -0.16700
C3033       C  0.53352919  0.00135499  0.55439559     0.13400
C3034       C  0.52210692  0.00858072  0.53177039     0.00300
C3035       C  0.50039138  0.01564169  0.53549912     0.15300
C3036       C  0.49018409  0.01516815  0.56120509     0.24700
C3037       C  0.50136778  0.00744173  0.58379934    -0.41600
C3038       C  0.52334533  0.00071142  0.58000388     0.31800
C3039       C  0.53294438  0.00872419  0.50442445     0.00400
F3040       F  0.48875604  0.02256921  0.51405252    -0.13900
F3041       F  0.53529646  0.99366911  0.60112939    -0.14400
C3042       C  0.54157878  0.99221376  0.49315018     0.15300
C3043       C  0.55212788  0.99238686  0.46766267     0.24700
C3044       C  0.55384139  0.00902002  0.45249551    -0.41500
C3045       C  0.54517916  0.02555380  0.46390222     0.31700
C3046       C  0.53510139  0.02541308  0.48963486     0.13400
F3047       F  0.53936866  0.97576388  0.50659806    -0.13900
F3048       F  0.54683510  0.04203966  0.45042183    -0.14400
F3049       F  0.56004823  0.97611749  0.45751752    -0.16700
F3050       F  0.52789820  0.04173139  0.50041042    -0.15300
F3051       F  0.55483091  0.99515663  0.55180107    -0.15300
F3052       F  0.46909413  0.02183089  0.56371808    -0.16700
C3053       C  0.55577295  0.99385727  0.82413513     0.13400
C3054       C  0.57163483  0.00807892  0.82127091     0.00300
C3055       C  0.56756627  0.02290704  0.80347680     0.15300
C3056       C  0.54802593  0.02345092  0.78817015     0.24700
C3057       C  0.53198115  0.00903158  0.79039101    -0.41600
C3058       C  0.53610154  0.99424941  0.80877164     0.31800
C3059       C  0.59224309  0.00807965  0.83745071     0.00400
F3060       F  0.58272240  0.03687432  0.80080130    -0.13900
F3061       F  0.52146066  0.97992504  0.81150974    -0.14400
C3062       C  0.61157698  0.99928164  0.82782140     0.15300
C3063       C  0.63173063  0.00097813  0.84204856     0.24700
C3064       C  0.63272709  0.01154425  0.86612294    -0.41500
C3065       C  0.61297088  0.01993878  0.87588622     0.31700
C3066       C  0.59303744  0.01833325  0.86152872     0.13400
F3067       F  0.61098322  0.98939381  0.80435026    -0.13900
F3068       F  0.61266547  0.02940169  0.89971942    -0.14400
F3069       F  0.65027677  0.99264858  0.83194984    -0.16700
F3070       F  0.57445174  0.02697138  0.87100444    -0.15300
F3071       F  0.55941130  0.97956418  0.84172889    -0.15300
F3072       F  0.54517151  0.03806377  0.77089801    -0.16700
C3073       C  0.35732731  0.01758376  0.58260884     0.13400
C3074       C  0.33939606  0.00554501  0.58782103     0.00300
C3075       C  0.34073042  0.99282565  0.60938837     0.15300
C3076       C  0.35988254  0.99189372  0.62541469     0.24700
C3077       C  0.37827842  0.00375088  0.62015385    -0.41600
C3078       C  0.37656257  0.01679786  0.59867069     0.31800
C3079       C  0.31941326  0.00580230  0.57040324     0.00400
F3080       F  0.32329648  0.98134180  0.61505581    -0.13900
F3081       F  0.39349099  0.02871955  0.59285616    -0.14400
C3082       C  0.31388801  0.99001237  0.55514960     0.15300
C3083       C  0.29477553  0.98988789  0.53903369     0.24700
C3084       C  0.28085809  0.00571688  0.53759342    -0.41500
C3085       C  0.28634487  0.02149020  0.55331702     0.31700
C3086       C  0.30552360  0.02150526  0.56952137     0.13400
F3087       F  0.32720736  0.97471516  0.55565944    -0.13900
F3088       F  0.27346146  0.03703228  0.55274853    -0.14400
F3089       F  0.28985971  0.97411574  0.52507525    -0.16700
F3090       F  0.31043740  0.03677053  0.58462189    -0.15300
F3091       F  0.35640518  0.02980800  0.56150206    -0.15300
F3092       F  0.36010865  0.97943382  0.64623825    -0.16700
C3093       C  0.51083630  0.24785412  0.74769105     0.13400
C3094       C  0.53396063  0.25116044  0.74845662     0.00300
C3095       C  0.54511341  0.25596402  0.72434921     0.15300
C3096       C  0.53332882  0.25765224  0.69989486     0.24700
C3097       C  0.51002977  0.25467471  0.69908264    -0.41600
C3098       C  0.49895042  0.24965968  0.72326862     0.31800
C3099       C  0.54627984  0.25015931  0.77458355     0.00400
F3100       F  0.56751021  0.25887205  0.72447628    -0.13900
F3101       F  0.47648332  0.24723112  0.72353469    -0.14400
C3102       C  0.54775438  0.23328211  0.78896190     0.15300
C3103       C  0.55803484  0.23262456  0.81452160     0.24700
C3104       C  0.56715038  0.24888073  0.82618851    -0.41500
C3105       C  0.56638120  0.26563716  0.81119047     0.31700
C3106       C  0.55599816  0.26625291  0.78567560     0.13400
F3107       F  0.53916708  0.21741940  0.77821582    -0.13900
F3108       F  0.57463717  0.28167141  0.82177097    -0.14400
F3109       F  0.55902967  0.21604506  0.82785239    -0.16700
F3110       F  0.55460075  0.28277396  0.77225736    -0.15300
F3111       F  0.49964140  0.24344529  0.77083910    -0.15300
F3112       F  0.54484156  0.26196736  0.67692625    -0.16700
C3113       C  0.60863372  0.25950149  0.45554797     0.13400
C3114       C  0.58854659  0.25288685  0.44442032     0.00300
C3115       C  0.58875987  0.24388888  0.41920304     0.15300
C3116       C  0.60873332  0.24130561  0.40532637     0.24700
C3117       C  0.62894014  0.24825149  0.41600516    -0.41600
C3118       C  0.62868297  0.25737114  0.44132142     0.31800
C3119       C  0.56738814  0.25452398  0.45945681     0.00400
F3120       F  0.56943951  0.23788003  0.40773064    -0.13900
F3121       F  0.64782538  0.26397222  0.45249848    -0.14400
C3122       C  0.55907581  0.27202721  0.46715061     0.15300
C3123       C  0.53929013  0.27328325  0.48211389     0.24700
C3124       C  0.52774523  0.25699943  0.48967877    -0.41500
C3125       C  0.53566532  0.23958742  0.48090218     0.31700
C3126       C  0.55531737  0.23836683  0.46600725     0.13400
F3127       F  0.57026610  0.28784295  0.46044573    -0.13900
F3128       F  0.52468622  0.22362813  0.48747067    -0.14400
F3129       F  0.53220980  0.29027143  0.49051819    -0.16700
F3130       F  0.56302263  0.22128668  0.45883507    -0.15300
F3131       F  0.60887264  0.26772147  0.48037743    -0.15300
F3132       F  0.60801846  0.23254454  0.38092301    -0.16700
C3133       C  0.50253132  0.11386213  0.66440472     0.13400
C3134       C  0.48941612  0.12178881  0.64372543     0.00300
C3135       C  0.47394370  0.11053418  0.63004424     0.15300
C3136       C  0.47106821  0.09183881  0.63737643     0.24700
C3137       C  0.48383312  0.08376408  0.65852223    -0.41600
C3138       C  0.49993498  0.09505200  0.67162835     0.31800
C3139       C  0.49073991  0.14201245  0.63734221     0.00400
F3140       F  0.46084254  0.11789343  0.61020666    -0.13900
F3141       F  0.51308124  0.08806356  0.69170451    -0.14400
C3142       C  0.49639384  0.14816923  0.61107031     0.15300
C3143       C  0.49518612  0.16712181  0.60424732     0.24700
C3144       C  0.48823625  0.18036600  0.62362416    -0.41500
C3145       C  0.48352866  0.17416098  0.65031785     0.31700
C3146       C  0.48465577  0.15520485  0.65700214     0.13400
F3147       F  0.50259404  0.13571824  0.59177845    -0.13900
F3148       F  0.47744225  0.18637295  0.66998460    -0.14400
F3149       F  0.49977898  0.17230535  0.57826692    -0.16700
F3150       F  0.47871521  0.14961734  0.68240718    -0.15300
F3151       F  0.51783210  0.12440052  0.67771971    -0.15300
F3152       F  0.45516393  0.08192339  0.62417057    -0.16700
C3153       C  0.25491013  0.99082989  0.29262670     0.13400
C3154       C  0.26397004  0.00708741  0.28090542     0.00300
C3155       C  0.26105240  0.02419232  0.29418315     0.15300
C3156       C  0.24988710  0.02500716  0.31906768     0.24700
C3157       C  0.24111026  0.00874240  0.33111775    -0.41600
C3158       C  0.24331379  0.99167551  0.31734241     0.31800
C3159       C  0.27578935  0.00640108  0.25440739     0.00400
F3160       F  0.26876609  0.04022136  0.28283553    -0.13900
F3161       F  0.23506889  0.97569151  0.32827290    -0.14400
C3162       C  0.26498411  0.99910211  0.23149863     0.15300
C3163       C  0.27563223  0.99890841  0.20625280     0.24700
C3164       C  0.29757929  0.00581786  0.20330700    -0.41500
C3165       C  0.30827036  0.01345757  0.22627623     0.31700
C3166       C  0.29750577  0.01364094  0.25158539     0.13400
F3167       F  0.24378704  0.99252526  0.23341188    -0.13900
F3168       F  0.32927144  0.02047084  0.22447594    -0.14400
F3169       F  0.26409474  0.99232871  0.18454154    -0.16700
F3170       F  0.30847520  0.02058677  0.27349509    -0.15300
F3171       F  0.25785050  0.97403872  0.28050768    -0.15300
F3172       F  0.24745443  0.04182628  0.33126919    -0.16700
C3173       C  0.49917797  0.99530241  0.21100579     0.13400
C3174       C  0.48384759  0.00996440  0.21453582     0.00300
C3175       C  0.48956229  0.02496692  0.23153644     0.15300
C3176       C  0.50975419  0.02484185  0.24569127     0.24700
C3177       C  0.52408508  0.00946554  0.24375632    -0.41600
C3178       C  0.51894449  0.99487426  0.22597312     0.31800
C3179       C  0.46152480  0.00899062  0.20169722     0.00400
F3180       F  0.47506741  0.03919015  0.23575967    -0.13900
F3181       F  0.53295471  0.98011868  0.22341810    -0.14400
C3182       C  0.44838866  0.99285822  0.20479752     0.15300
C3183       C  0.42794249  0.99130467  0.19141457     0.24700
C3184       C  0.41998473  0.00603477  0.17524282    -0.41500
C3185       C  0.43245953  0.02260440  0.17344201     0.31700
C3186       C  0.45321532  0.02397395  0.18624255     0.13400
F3187       F  0.45539695  0.97854253  0.22078110    -0.13900
F3188       F  0.42519203  0.03708218  0.15796715    -0.14400
F3189       F  0.41588801  0.97539217  0.19428372    -0.16700
F3190       F  0.46561410  0.03961245  0.18248017    -0.15300
F3191       F  0.49478830  0.98120400  0.19345168    -0.15300
F3192       F  0.51457523  0.03909679  0.26281433    -0.16700
C3193       C  0.25154556  0.98784621  0.96627996     0.13400
C3194       C  0.24256569  0.00468236  0.95670579     0.00300
C3195       C  0.25307508  0.02155854  0.96320200     0.15300
C3196       C  0.27197478  0.02171254  0.97967704     0.24700
C3197       C  0.28079067  0.00494281  0.98990029    -0.41600
C3198       C  0.27066607  0.98794336  0.98258215     0.31800
C3199       C  0.22169150  0.00505763  0.94091507     0.00400
F3200       F  0.24435687  0.03801126  0.95459471    -0.13900
F3201       F  0.27840522  0.97150549  0.99247892    -0.14400
C3202       C  0.20156771  0.99916620  0.95278961     0.15300
C3203       C  0.18136253  0.00186165  0.93914116     0.24700
C3204       C  0.18104427  0.01041410  0.91334123    -0.41500
C3205       C  0.20139080  0.01582930  0.90124228     0.31700
C3206       C  0.22149919  0.01310577  0.91490745     0.13400
F3207       F  0.20140918  0.99149180  0.97806530    -0.13900
F3208       F  0.20195186  0.02349424  0.87596007    -0.14400
F3209       F  0.16208608  0.99671558  0.95158387    -0.16700
F3210       F  0.24087343  0.01845182  0.90283489    -0.15300
F3211       F  0.24151008  0.97138327  0.96035124    -0.15300
F3212       F  0.28135213  0.03834349  0.98614904    -0.16700
C3213       C  0.38347124  0.99317916  0.91927017     0.13400
C3214       C  0.40080671  0.00509473  0.91099128     0.00300
C3215       C  0.41070495  0.01677182  0.93048712     0.15300
C3216       C  0.40348854  0.01650507  0.95772125     0.24700
C3217       C  0.38621080  0.00435894  0.96628244    -0.41600
C3218       C  0.37620837  0.99282855  0.94640378     0.31800
C3219       C  0.40846266  0.00533802  0.88202617     0.00400
F3220       F  0.42719434  0.02872162  0.92302049    -0.13900
F3221       F  0.35916349  0.98118729  0.95298012    -0.14400
C3222       C  0.39380456  0.01052724  0.86097576     0.15300
C3223       C  0.40096252  0.01075817  0.83374805     0.24700
C3224       C  0.42289657  0.00539461  0.82675656    -0.41500
C3225       C  0.43745659  0.99996770  0.84795160     0.31700
C3226       C  0.43037345  0.00012553  0.87521274     0.13400
F3227       F  0.37249677  0.01552950  0.86682787    -0.13900
F3228       F  0.45873110  0.99471309  0.84241202    -0.14400
F3229       F  0.38615647  0.01580484  0.81416949    -0.16700
F3230       F  0.44484939  0.99480702  0.89500522    -0.15300
F3231       F  0.37372701  0.98155907  0.90105982    -0.15300
F3232       F  0.41345952  0.02826630  0.97555718    -0.16700
C3233       C  0.48404148  0.26633820  0.03650341     0.13400
C3234       C  0.48403306  0.25757804  0.06199598     0.00300
C3235       C  0.50323859  0.24826825  0.07103145     0.15300
C3236       C  0.52236003  0.24778308  0.05480319     0.24700
C3237       C  0.52263589  0.25680171  0.02929389    -0.41600
C3238       C  0.50315777  0.26603354  0.02028921     0.31800
C3239       C  0.46412209  0.25847747  0.07948236     0.00400
F3240       F  0.50339915  0.23956643  0.09559511    -0.13900
F3241       F  0.50241178  0.27461173  0.99564522    -0.14400
C3242       C  0.44433919  0.24942210  0.07188366     0.15300
C3243       C  0.42564588  0.24992748  0.08890821     0.24700
C3244       C  0.42645043  0.25972573  0.11370608    -0.41500
C3245       C  0.44635409  0.26899430  0.12094419     0.31700
C3246       C  0.46496607  0.26834233  0.10398189     0.13400
F3247       F  0.44329128  0.23985442  0.04814326    -0.13900
F3248       F  0.44811631  0.27832395  0.14482836    -0.14400
F3249       F  0.40677884  0.24098726  0.08095580    -0.16700
F3250       F  0.48386711  0.27744387  0.11143062    -0.15300
F3251       F  0.46559853  0.27546257  0.02752005    -0.15300
F3252       F  0.54070724  0.23882486  0.06439102    -0.16700
C3253       C  0.41336062  0.25052950  0.35911264     0.13400
C3254       C  0.40059339  0.25961824  0.37891682     0.00300
C3255       C  0.38080486  0.26861127  0.37123996     0.15300
C3256       C  0.37372100  0.26843813  0.34409920     0.24700
C3257       C  0.38635660  0.25917590  0.32397612    -0.41600
C3258       C  0.40634018  0.25021574  0.33195771     0.31800
C3259       C  0.40801899  0.25979453  0.40761708     0.00400
F3260       F  0.36838558  0.27769461  0.39009043    -0.13900
F3261       F  0.41928958  0.24119747  0.31356517    -0.14400
C3262       C  0.42500004  0.27192938  0.41588813     0.15300
C3263       C  0.43224321  0.27208825  0.44296198     0.24700
C3264       C  0.42248052  0.26011188  0.46256943    -0.41500
C3265       C  0.40539751  0.24784401  0.45390488     0.31700
C3266       C  0.39830935  0.24773235  0.42672605     0.13400
F3267       F  0.43453001  0.28374387  0.39764886    -0.13900
F3268       F  0.39546410  0.23585904  0.47157331    -0.14400
F3269       F  0.44899242  0.28393786  0.44973217    -0.16700
F3270       F  0.38207057  0.23567139  0.41893214    -0.15300
F3271       F  0.43263039  0.24182603  0.36616524    -0.15300
F3272       F  0.35428893  0.27714619  0.33775618    -0.16700
C3273       C  0.32389872  0.15380529  0.12387910     0.13400
C3274       C  0.31321640  0.14151101  0.14189325     0.00300
C3275       C  0.30585069  0.14803635  0.16714059     0.15300
C3276       C  0.30971370  0.16650311  0.17473903     0.24700
C3277       C  0.32115099  0.17886689  0.15713345    -0.41600
C3278       C  0.32780351  0.17232570  0.13132448     0.31800
C3279       C  0.31403779  0.12130517  0.13672986     0.00400
F3280       F  0.29613433  0.13617001  0.18515995    -0.13900
F3281       F  0.33870252  0.18360866  0.11352266    -0.14400
C3282       C  0.33266219  0.11139505  0.14589749     0.15300
C3283       C  0.33507140  0.09256577  0.13987534     0.24700
C3284       C  0.31869426  0.08307321  0.12458308    -0.41500
C3285       C  0.29957659  0.09299726  0.11604512     0.31700
C3286       C  0.29728614  0.11202054  0.12210887     0.13400
F3287       F  0.34895112  0.12020942  0.16013875    -0.13900
F3288       F  0.28315832  0.08434599  0.10184733    -0.14400
F3289       F  0.35408100  0.08394736  0.14803007    -0.16700
F3290       F  0.27891700  0.12139786  0.11350610    -0.15300
F3291       F  0.33173174  0.14753076  0.09967269    -0.15300
F3292       F  0.30339915  0.17184524  0.20005622    -0.16700
C3293       C  0.16394446  0.10991376  0.78755995     0.13400
C3294       C  0.15086863  0.12205262  0.77182943     0.00300
C3295       C  0.13107910  0.11515987  0.76002091     0.15300
C3296       C  0.12385013  0.09680788  0.76539185     0.24700
C3297       C  0.13625270  0.08508697  0.78287357    -0.41600
C3298       C  0.15695086  0.09171135  0.79271187     0.31800
C3299       C  0.15695556  0.14221518  0.77088004     0.00400
F3300       F  0.11842192  0.12638345  0.74397521    -0.13900
F3301       F  0.17030668  0.08080139  0.80837499    -0.14400
C3302       C  0.17866481  0.14787016  0.76348582     0.15300
C3303       C  0.18619369  0.16598518  0.76911872     0.24700
C3304       C  0.17209859  0.17885639  0.78218310    -0.41500
C3305       C  0.14983747  0.17358664  0.78754369     0.31700
C3306       C  0.14238016  0.15550016  0.78198786     0.13400
F3307       F  0.19304684  0.13545949  0.75229285    -0.13900
F3308       F  0.13547247  0.18571891  0.79940110    -0.14400
F3309       F  0.20780803  0.17036200  0.76382875    -0.16700
F3310       F  0.12141524  0.15055954  0.78962212    -0.15300
F3311       F  0.18291467  0.11606755  0.79969908    -0.15300
F3312       F  0.10424961  0.09092112  0.75456882    -0.16700
C3313       C  0.25696659  0.25708604  0.00108284     0.13400
C3314       C  0.27851947  0.24963547  0.00398198     0.00300
C3315       C  0.28907909  0.24169627  0.98139777     0.15300
C3316       C  0.27833119  0.24127074  0.95620425     0.24700
C3317       C  0.25674719  0.24893365  0.95302327    -0.41600
C3318       C  0.24622022  0.25686801  0.97582385     0.31800
C3319       C  0.29033324  0.25086719  0.03030349     0.00400
F3320       F  0.31015512  0.23489086  0.98353752    -0.13900
F3321       F  0.22541472  0.26421393  0.97384871    -0.14400
C3322       C  0.29782019  0.23471670  0.04374669     0.15300
C3323       C  0.30854963  0.23605380  0.06894574     0.24700
C3324       C  0.31186039  0.25358048  0.08105474    -0.41500
C3325       C  0.30483067  0.26971967  0.06719700     0.31700
C3326       C  0.29421402  0.26836236  0.04204799     0.13400
F3327       F  0.29412354  0.21763270  0.03285734    -0.13900
F3328       F  0.30847445  0.28687773  0.07787332    -0.14400
F3329       F  0.31481602  0.22019025  0.08199589    -0.16700
F3330       F  0.28788001  0.28418988  0.02897314    -0.15300
F3331       F  0.24626056  0.26448050  0.02285685    -0.15300
F3332       F  0.28947240  0.23387606  0.93475324    -0.16700
C3333       C  0.10857693  0.26984726  0.94419264     0.13400
C3334       C  0.09507945  0.25421433  0.94871659     0.00300
C3335       C  0.10188950  0.23672179  0.93916412     0.15300
C3336       C  0.12183762  0.23489006  0.92486915     0.24700
C3337       C  0.13549110  0.25055982  0.92009564    -0.41600
C3338       C  0.12865245  0.26807379  0.93002584     0.31800
C3339       C  0.07495581  0.25564116  0.96566905     0.00400
F3340       F  0.08921960  0.22135136  0.94391093    -0.13900
F3341       F  0.14102751  0.28361541  0.92549278    -0.14400
C3342       C  0.05618005  0.26584851  0.95718803     0.15300
C3343       C  0.03685309  0.26613950  0.97329368     0.24700
C3344       C  0.03614191  0.25606527  0.99793173    -0.41500
C3345       C  0.05553588  0.24649274  0.00659384     0.31700
C3346       C  0.07461442  0.24634451  0.99064415     0.13400
F3347       F  0.05645414  0.27518573  0.93313367    -0.13900
F3348       F  0.05641942  0.23747112  0.03089188    -0.14400
F3349       F  0.01886237  0.27596566  0.96457655    -0.16700
F3350       F  0.09301367  0.23720196  0.99976757    -0.15300
F3351       F  0.10254982  0.28674618  0.95408367    -0.15300
F3352       F  0.12782542  0.21771837  0.91594168    -0.16700
C3353       C  0.35726337  0.26903318  0.70036033     0.13400
C3354       C  0.34671895  0.25161235  0.70192057     0.00300
C3355       C  0.35529432  0.23643241  0.68747234     0.15300
C3356       C  0.37450992  0.23862911  0.67174997     0.24700
C3357       C  0.38490265  0.25618426  0.66985429    -0.41600
C3358       C  0.37609246  0.27137039  0.68417660     0.31800
C3359       C  0.32700911  0.24946127  0.71922570     0.00400
F3360       F  0.34519927  0.21951541  0.68888931    -0.13900
F3361       F  0.38599368  0.28837847  0.68293155    -0.14400
C3362       C  0.30583461  0.24697587  0.70763176     0.15300
C3363       C  0.28685564  0.24737050  0.72408949     0.24700
C3364       C  0.28896996  0.25060314  0.75216944    -0.41500
C3365       C  0.31031988  0.25223854  0.76379051     0.31700
C3366       C  0.32921754  0.25151309  0.74740396     0.13400
F3367       F  0.30352853  0.24501670  0.68031637    -0.13900
F3368       F  0.31288850  0.25446162  0.79103094    -0.14400
F3369       F  0.26642734  0.24551809  0.71244753    -0.16700
F3370       F  0.34973471  0.25313408  0.75889891    -0.15300
F3371       F  0.34919933  0.28379955  0.71447038    -0.15300
F3372       F  0.38260304  0.22377000  0.65786662    -0.16700
C3373       C  0.12944516  0.64856990  0.02589169     0.13400
C3374       C  0.14902941  0.64127580  0.01429316     0.00300
C3375       C  0.16216810  0.65283732  0.99775496     0.15300
C3376       C  0.15530850  0.67095205  0.99151812     0.24700
C3377       C  0.13485804  0.67802608  0.00146768    -0.41600
C3378       C  0.12246361  0.66681613  0.01970580     0.31800
C3379       C  0.15397724  0.62098513  0.01495237     0.00400
F3380       F  0.18091769  0.64606731  0.98583238    -0.13900
F3381       F  0.10298099  0.67303498  0.03041201    -0.14400
C3382       C  0.14010739  0.60889706  0.00033397     0.15300
C3383       C  0.14721417  0.59089275  0.99401262     0.24700
C3384       C  0.16843512  0.58441517  0.00233170    -0.41500
C3385       C  0.18129829  0.59588520  0.01952336     0.31700
C3386       C  0.17424730  0.61412846  0.02544395     0.13400
F3387       F  0.12040622  0.61508645  0.99007161    -0.13900
F3388       F  0.20135217  0.58999981  0.02905457    -0.14400
F3389       F  0.13360508  0.58011995  0.97855261    -0.16700
F3390       F  0.18774141  0.62545181  0.04018004    -0.15300
F3391       F  0.11657743  0.63771541  0.04224469    -0.15300
F3392       F  0.16848480  0.68127226  0.97479602    -0.16700
C3393       C  0.05141401  0.49329445  0.82417015     0.13400
C3394       C  0.06381079  0.50973952  0.82662840     0.00300
C3395       C  0.05580591  0.52640684  0.81564295     0.15300
C3396       C  0.03635634  0.52645135  0.80035758     0.24700
C3397       C  0.02475015  0.50966300  0.79563171    -0.41600
C3398       C  0.03184767  0.49322806  0.80878644     0.44600
C3399       C  0.08507920  0.50993951  0.84095432     0.00400
F3400       F  0.06726496  0.54256001  0.81911565    -0.13900
F3401       F  0.02066030  0.47692866  0.80559897    -0.14400
C3402       C  0.10496931  0.50605418  0.82701986     0.15300
C3403       C  0.12546370  0.50839573  0.84008813     0.24700
C3404       C  0.12607053  0.51484009  0.86702346    -0.41500
C3405       C  0.10598640  0.51859539  0.88081472     0.31700
C3406       C  0.08564279  0.51615184  0.86780218     0.13400
F3407       F  0.10448457  0.50050246  0.80065024    -0.13900
F3408       F  0.10598709  0.52416501  0.90716611    -0.14400
F3409       F  0.14463917  0.50490565  0.82630298    -0.16700
F3410       F  0.06641286  0.52009246  0.88121387    -0.15300
F3411       F  0.05854924  0.47729389  0.83611112    -0.15300
F3412       F  0.02936731  0.54284860  0.78942960    -0.16700
C3413       C  0.24489111  0.40173012  0.90260425     0.13400
C3414       C  0.22770003  0.39317423  0.88770468     0.00300
C3415       C  0.20920930  0.40395840  0.87989754     0.15300
C3416       C  0.20780879  0.42286299  0.88688017     0.24700
C3417       C  0.22483399  0.43152290  0.90223858    -0.41600
C3418       C  0.24342845  0.42059530  0.91000209     0.31800
C3419       C  0.22833508  0.37277937  0.88172301     0.00400
F3420       F  0.19231931  0.39609425  0.86554762    -0.13900
F3421       F  0.26024780  0.42805749  0.92493675    -0.14400
C3422       C  0.21252691  0.36080116  0.89353175     0.15300
C3423       C  0.21309669  0.34156411  0.88862201     0.24700
C3424       C  0.22948724  0.33363499  0.87145299    -0.41500
C3425       C  0.24512427  0.34586201  0.85919585     0.31700
C3426       C  0.24448306  0.36516715  0.86425548     0.13400
F3427       F  0.19635950  0.36779410  0.90993097    -0.13900
F3428       F  0.26106727  0.33924425  0.84217599    -0.14400
F3429       F  0.19709583  0.33084745  0.90033438    -0.16700
F3430       F  0.25925187  0.37654100  0.85141859    -0.15300
F3431       F  0.26284693  0.39163689  0.91077090    -0.15300
F3432       F  0.18934560  0.43246835  0.87918163    -0.16700
C3433       C  0.12945166  0.14774182  0.52283595     0.13400
C3434       C  0.14952109  0.14058511  0.51228680     0.00300
C3435       C  0.16403277  0.15273685  0.49847292     0.15300
C3436       C  0.15831095  0.17141410  0.49437233     0.24700
C3437       C  0.13746023  0.17838024  0.50310964    -0.41600
C3438       C  0.12340886  0.16640191  0.51821351     0.31800
C3439       C  0.15450815  0.12023765  0.51302634     0.00400
F3440       F  0.18324255  0.14625173  0.48732807    -0.13900
F3441       F  0.10329657  0.17237405  0.52737247    -0.14400
C3442       C  0.13950325  0.10754897  0.50126692     0.15300
C3443       C  0.14569996  0.08899850  0.49715825     0.24700
C3444       C  0.16721813  0.08268470  0.50436386    -0.41500
C3445       C  0.18155225  0.09499547  0.51819997     0.31700
C3446       C  0.17525645  0.11359980  0.52241866     0.13400
F3447       F  0.11938171  0.11339417  0.49184657    -0.13900
F3448       F  0.20224552  0.08946158  0.52599924    -0.14400
F3449       F  0.13086000  0.07740023  0.48497733    -0.16700
F3450       F  0.18985195  0.12537295  0.53464129    -0.15300
F3451       F  0.11534704  0.13648430  0.53693992    -0.15300
F3452       F  0.17305276  0.18250152  0.48095436    -0.16700
C3453       C  0.01066670  0.24207880  0.25011141     0.13400
C3454       C  0.03184497  0.25042168  0.25286078     0.00300
C3455       C  0.04150457  0.25898427  0.23002650     0.15300
C3456       C  0.02999716  0.25990532  0.20530118     0.24700
C3457       C  0.00840201  0.25214929  0.20256384    -0.41600
C3458       C  0.99912940  0.24280409  0.22520202     0.31800
C3459       C  0.04378890  0.25058548  0.27951585     0.00400
F3460       F  0.06233349  0.26637144  0.23158800    -0.13900
F3461       F  0.97864543  0.23479615  0.22356442    -0.14400
C3462       C  0.04871674  0.23387183  0.29319246     0.15300
C3463       C  0.05954555  0.23411336  0.31846337     0.24700
C3464       C  0.06574242  0.25111392  0.33074856    -0.41500
C3465       C  0.06132439  0.26782257  0.31667906     0.31700
C3466       C  0.05044888  0.26754947  0.29138401     0.13400
F3467       F  0.04318331  0.21724009  0.28197074    -0.13900
F3468       F  0.06643805  0.28450539  0.32801686    -0.14400
F3469       F  0.06396529  0.21761578  0.33093884    -0.16700
F3470       F  0.04565431  0.28396687  0.27890839    -0.15300
F3471       F  0.00079919  0.23373643  0.27182534    -0.15300
F3472       F  0.04031470  0.26825442  0.18390653    -0.16700
C3473       C  0.98968647  0.26792428  0.55745575     0.13400
C3474       C  0.98188544  0.25081234  0.56737021     0.00300
C3475       C  0.99363019  0.23441769  0.56156390     0.15300
C3476       C  0.01304860  0.23514997  0.54574441     0.24700
C3477       C  0.02080595  0.25232677  0.53542604    -0.41600
C3478       C  0.00893354  0.26871792  0.54161550     0.31800
C3479       C  0.96197379  0.25055579  0.58479638     0.00400
F3480       F  0.98643511  0.21779824  0.57150482    -0.13900
F3481       F  0.01620161  0.28562924  0.53286357    -0.14400
C3482       C  0.94116693  0.24520042  0.57431552     0.15300
C3483       C  0.92184559  0.24751870  0.58992173     0.24700
C3484       C  0.92324133  0.25508198  0.61626954    -0.41500
C3485       C  0.94429749  0.25972755  0.62697102     0.31700
C3486       C  0.96346245  0.25757534  0.61127014     0.13400
F3487       F  0.93951981  0.23836332  0.54868107    -0.13900
F3488       F  0.94640254  0.26609080  0.65282237    -0.14400
F3489       F  0.90176296  0.24303272  0.57893263    -0.16700
F3490       F  0.98355080  0.26257566  0.62174355    -0.15300
F3491       F  0.97861136  0.28392450  0.56328894    -0.15300
F3492       F  0.02393549  0.21905225  0.54007868    -0.16700
C3493       C  0.20914414  0.23617662  0.34783242     0.13400
C3494       C  0.21888466  0.25319986  0.34036180     0.00300
C3495       C  0.20861873  0.26995401  0.34792205     0.15300
C3496       C  0.18873873  0.26969674  0.36284122     0.24700
C3497       C  0.17891011  0.25261380  0.37044103    -0.41600
C3498       C  0.18929633  0.23585330  0.36260687     0.31800
C3499       C  0.23895592  0.25332417  0.32310754     0.00400
F3500       F  0.21774329  0.28653796  0.34055166    -0.13900
F3501       F  0.18013239  0.21908960  0.36900604    -0.14400
C3502       C  0.23760899  0.24621166  0.29668399     0.15300
C3503       C  0.25646535  0.24572578  0.28019847     0.24700
C3504       C  0.27706175  0.25265876  0.28971895    -0.41500
C3505       C  0.27828848  0.26014683  0.31608078     0.31700
C3506       C  0.25936569  0.26029210  0.33278612     0.13400
F3507       F  0.21782223  0.24003939  0.28666313    -0.13900
F3508       F  0.29783379  0.26698615  0.32582478    -0.14400
F3509       F  0.25429468  0.23901576  0.25454109    -0.16700
F3510       F  0.26101364  0.26692263  0.35852565    -0.15300
F3511       F  0.21899535  0.21983044  0.34090577    -0.15300
F3512       F  0.17952394  0.28613094  0.37049805    -0.16700
C3513       C  0.17761614  0.24904868  0.66559372     0.13400
C3514       C  0.15704345  0.25755289  0.66010274     0.00300
C3515       C  0.14521141  0.26604465  0.68128522     0.15300
C3516       C  0.15364702  0.26576866  0.70780552     0.24700
C3517       C  0.17415896  0.25687931  0.71365354    -0.41600
C3518       C  0.18607476  0.24860330  0.69208182     0.31800
C3519       C  0.14782215  0.25730550  0.63226254     0.00400
F3520       F  0.12519276  0.27424620  0.67635290    -0.13900
F3521       F  0.20605412  0.24019783  0.69642886    -0.14400
C3522       C  0.14116106  0.24041235  0.62047272     0.15300
C3523       C  0.13294218  0.24003262  0.59384427     0.24700
C3524       C  0.13159520  0.25657663  0.57839943    -0.41500
C3525       C  0.13797437  0.27354032  0.59056482     0.31700
C3526       C  0.14593522  0.27387792  0.61727640     0.13400
F3527       F  0.14268192  0.22426407  0.63481925    -0.13900
F3528       F  0.13634340  0.28987849  0.57670457    -0.14400
F3529       F  0.12698042  0.22339565  0.58296717    -0.16700
F3530       F  0.15229651  0.29035296  0.62834250    -0.15300
F3531       F  0.18965018  0.24132962  0.64513450    -0.15300
F3532       F  0.14136387  0.27382596  0.72776678    -0.16700
C3533       C  0.16429342  0.60863667  0.27781060     0.13400
C3534       C  0.14869962  0.62220554  0.26989359     0.00300
C3535       C  0.12669567  0.61660882  0.26394891     0.15300
C3536       C  0.12001417  0.59802111  0.26785809     0.24700
C3537       C  0.13521873  0.58479466  0.27807375    -0.41600
C3538       C  0.15765764  0.59013925  0.28173532     0.31800
C3539       C  0.15460524  0.64228740  0.27214461     0.00400
F3540       F  0.11138130  0.62939274  0.25580806    -0.13900
F3541       F  0.17302242  0.57757361  0.29048158    -0.14400
C3542       C  0.17257244  0.65008574  0.25756477     0.15300
C3543       C  0.18013559  0.66822496  0.26333238     0.24700
C3544       C  0.16992532  0.67881301  0.28403414    -0.41500
C3545       C  0.15080712  0.67132070  0.29698644     0.31700
C3546       C  0.14350665  0.65328837  0.29136525     0.13400
F3547       F  0.18310725  0.63994270  0.23818325    -0.13900
F3548       F  0.13928155  0.68121555  0.31582839    -0.14400
F3549       F  0.19786213  0.67507007  0.24930709    -0.16700
F3550       F  0.12626383  0.64617068  0.30602685    -0.15300
F3551       F  0.18557983  0.61356651  0.28396351    -0.15300
F3552       F  0.09831445  0.59336716  0.26377546    -0.16700
C3553       C  0.04305845  0.51275249  0.55567235     0.13400
C3554       C  0.03101651  0.51556544  0.53147898     0.00300
C3555       C  0.00769700  0.51786405  0.53294432     0.15300
C3556       C  0.99660292  0.51682048  0.55802071     0.24700
C3557       C  0.00858597  0.51337428  0.58212323    -0.41600
C3558       C  0.03199202  0.51164450  0.58069984     0.31800
C3559       C  0.04272286  0.51570986  0.50475691     0.00400
F3560       F  0.99552338  0.52046120  0.50995498    -0.13900
F3561       F  0.04426126  0.50915127  0.60364558    -0.14400
C3562       C  0.05615908  0.50057458  0.49687599     0.15300
C3563       C  0.06668758  0.50044024  0.47140849     0.24700
C3564       C  0.06342653  0.51521052  0.45286478    -0.41500
C3565       C  0.05043792  0.53059488  0.46119306     0.31700
C3566       C  0.04036495  0.53086519  0.48685633     0.13400
F3567       F  0.05841539  0.48553564  0.51346806    -0.13900
F3568       F  0.04748773  0.54553419  0.44455564    -0.14400
F3569       F  0.07936704  0.48549524  0.46461713    -0.16700
F3570       F  0.02834809  0.54605110  0.49427643    -0.15300
F3571       F  0.06564132  0.51124027  0.55508705    -0.15300
F3572       F  0.97402814  0.51837107  0.55855496    -0.16700
C3573       C  0.00269156  0.51728229  0.21017895     0.13400
C3574       C  0.98474561  0.50559170  0.21693800     0.00300
C3575       C  0.98613490  0.49414478  0.23998318     0.15300
C3576       C  0.00535393  0.49403142  0.25586522     0.24700
C3577       C  0.02382221  0.50530641  0.24885167    -0.41600
C3578       C  0.02211775  0.51714247  0.22592678     0.31800
C3579       C  0.96480960  0.50467938  0.19949038     0.00400
F3580       F  0.96869135  0.48310916  0.24724941    -0.13900
F3581       F  0.03925571  0.52842017  0.21840357    -0.14400
C3582       C  0.95900661  0.48779382  0.18712272     0.15300
C3583       C  0.93996035  0.48658260  0.17097876     0.24700
C3584       C  0.92641315  0.50237871  0.16656543    -0.41500
C3585       C  0.93233794  0.51933165  0.17912899     0.31700
C3586       C  0.95131411  0.52040367  0.19557995     0.13400
F3587       F  0.97193853  0.47243452  0.19058980    -0.13900
F3588       F  0.92009884  0.53499797  0.17519857    -0.14400
F3589       F  0.93470111  0.46980608  0.16001381    -0.16700
F3590       F  0.95634390  0.53672262  0.20806074    -0.15300
F3591       F  0.00161225  0.52847881  0.18789903    -0.15300
F3592       F  0.00556203  0.48302404  0.27837301    -0.16700
C3593       C  0.13422925  0.51791498  0.16169252     0.13400
C3594       C  0.15388096  0.50857559  0.15443579     0.00300
C3595       C  0.16593343  0.49895804  0.17449955     0.15300
C3596       C  0.15841131  0.49856059  0.20147572     0.24700
C3597       C  0.13858571  0.50790067  0.20900179    -0.41600
C3598       C  0.12662330  0.51759753  0.18858210     0.31800
C3599       C  0.16138241  0.50829769  0.12573141     0.00400
F3600       F  0.18477222  0.48953548  0.16777154    -0.13900
F3601       F  0.10730902  0.52663812  0.19435831    -0.14400
C3602       C  0.18181764  0.51634293  0.11817434     0.15300
C3603       C  0.18886279  0.51598349  0.09103210     0.24700
C3604       C  0.17551555  0.50756166  0.07077236    -0.41500
C3605       C  0.15517751  0.49920509  0.07869237     0.31700
C3606       C  0.14817037  0.49971303  0.10582434     0.13400
F3607       F  0.19478538  0.52487997  0.13705355    -0.13900
F3608       F  0.14175059  0.49078808  0.06019530    -0.14400
F3609       F  0.20885675  0.52381521  0.08475323    -0.16700
F3610       F  0.12845160  0.49166924  0.11276243    -0.15300
F3611       F  0.12237681  0.52743930  0.14265369    -0.15300
F3612       F  0.17062363  0.48896323  0.22007499    -0.16700
C3613       C  0.08592943  0.40674263  0.41478551     0.13400
C3614       C  0.07503160  0.39363622  0.39829544     0.00300
C3615       C  0.06514381  0.39967924  0.37392806     0.15300
C3616       C  0.06709434  0.41821389  0.36540421     0.24700
C3617       C  0.07896348  0.43133394  0.38115949    -0.41600
C3618       C  0.08785687  0.42537833  0.40640608     0.31800
C3619       C  0.07572872  0.37343105  0.40507894     0.00400
F3620       F  0.05393018  0.38744555  0.35794963    -0.13900
F3621       F  0.09881052  0.43740955  0.42293745    -0.14400
C3622       C  0.06747017  0.36655500  0.42992273     0.15300
C3623       C  0.06903450  0.34750203  0.43625325     0.24700
C3624       C  0.07884410  0.33487945  0.41772783    -0.41500
C3625       C  0.08679859  0.34194008  0.39271632     0.31700
C3626       C  0.08530587  0.36090986  0.38657749     0.13400
F3627       F  0.05767804  0.37826918  0.44796375    -0.13900
F3628       F  0.09595725  0.33052298  0.37384364    -0.14400
F3629       F  0.06128104  0.34156637  0.46074126    -0.16700
F3630       F  0.09370205  0.36713820  0.36255424    -0.15300
F3631       F  0.09566387  0.40132100  0.43846465    -0.15300
F3632       F  0.05787965  0.42303522  0.34116558    -0.16700
C3633       C  0.39376857  0.85762199  0.03959190     0.13400
C3634       C  0.40844737  0.87100549  0.02902636     0.00300
C3635       C  0.42944083  0.86534753  0.01930435     0.15300
C3636       C  0.43628554  0.84671003  0.02206206     0.24700
C3637       C  0.42226289  0.83360651  0.03491839    -0.41600
C3638       C  0.40050201  0.83910261  0.04232195     0.31800
C3639       C  0.40292005  0.89095330  0.03243991     0.00400
F3640       F  0.44371693  0.87806820  0.00851736    -0.13900
F3641       F  0.38604486  0.82669939  0.05355926    -0.14400
C3642       C  0.41222000  0.90066877  0.05434768     0.15300
C3643       C  0.40444125  0.91837471  0.06120884     0.24700
C3644       C  0.38717417  0.92696255  0.04605273    -0.41500
C3645       C  0.37850484  0.91739034  0.02331260     0.31700
C3646       C  0.38617537  0.89947257  0.01679596     0.13400
F3647       F  0.42804592  0.89250485  0.07016553    -0.13900
F3648       F  0.36189852  0.92491683  0.00806533    -0.14400
F3649       F  0.41354222  0.92679143  0.08327799    -0.16700
F3650       F  0.37672315  0.89014587  0.99577056    -0.15300
F3651       F  0.37348669  0.86280095  0.04929046    -0.15300
F3652       F  0.45719475  0.84188583  0.01417695    -0.16700
C3653       C  0.50385846  0.74444468  0.24864938     0.13400
C3654       C  0.52464454  0.75296663  0.25312159     0.00300
C3655       C  0.53503513  0.76256878  0.23171408     0.15300
C3656       C  0.52486082  0.76374236  0.20623994     0.24700
C3657       C  0.50391148  0.75527632  0.20151669    -0.41600
C3658       C  0.49363224  0.74546754  0.22307953     0.31800
C3659       C  0.53565960  0.75189787  0.28002759     0.00400
F3660       F  0.55532206  0.77062921  0.23538587    -0.13900
F3661       F  0.47349510  0.73710886  0.21970299    -0.14400
C3662       C  0.54101195  0.73454335  0.29161241     0.15300
C3663       C  0.55178549  0.73361114  0.31681068     0.24700
C3664       C  0.55730504  0.75003046  0.33085760    -0.41500
C3665       C  0.55229776  0.76738149  0.31901826     0.31700
C3666       C  0.54144886  0.76829850  0.29390127     0.13400
F3667       F  0.53604528  0.71850548  0.27835101    -0.13900
F3668       F  0.55699451  0.78345934  0.33232768    -0.14400
F3669       F  0.55711411  0.71666853  0.32732486    -0.16700
F3670       F  0.53599629  0.78522801  0.28345404    -0.15300
F3671       F  0.49318728  0.73549904  0.26926737    -0.15300
F3672       F  0.53585383  0.77298154  0.18615527    -0.16700
C3673       C  0.55829329  0.76567531  0.96371896     0.13400
C3674       C  0.56978296  0.74864828  0.96260464     0.00300
C3675       C  0.56052486  0.73276885  0.97477563     0.15300
C3676       C  0.54039394  0.73394752  0.98861472     0.24700
C3677       C  0.52940593  0.75122073  0.99136273    -0.41600
C3678       C  0.53820811  0.76699989  0.97805096     0.31800
C3679       C  0.59126148  0.74722297  0.94834906     0.00400
F3680       F  0.57140108  0.71617850  0.97408743    -0.13900
F3681       F  0.52803916  0.78383856  0.97987849    -0.14400
C3682       C  0.60952319  0.75820241  0.95622856     0.15300
C3683       C  0.62970767  0.75703031  0.94212627     0.24700
C3684       C  0.63187558  0.74480466  0.91990892    -0.41500
C3685       C  0.61365714  0.73324583  0.91296947     0.31700
C3686       C  0.59357814  0.73457351  0.92694414     0.13400
F3687       F  0.60779826  0.77000882  0.97764300    -0.13900
F3688       F  0.61473655  0.72112339  0.89188675    -0.14400
F3689       F  0.64701910  0.76788827  0.95021525    -0.16700
F3690       F  0.57606404  0.72389071  0.91892297    -0.15300
F3691       F  0.56668880  0.78103352  0.95116470    -0.15300
F3692       F  0.53199596  0.71815869  0.99998578    -0.16700
C3693       C  0.36261631  0.75034415  0.20829193     0.13400
C3694       C  0.34206986  0.75500760  0.19636636     0.00300
C3695       C  0.34121641  0.76090971  0.16925500     0.15300
C3696       C  0.36079916  0.76252426  0.15422504     0.24700
C3697       C  0.38150782  0.75804512  0.16609484    -0.41600
C3698       C  0.38227988  0.75172113  0.19315141     0.31800
C3699       C  0.32172096  0.75542008  0.21282648     0.00400
F3700       F  0.32143967  0.76560170  0.15762173    -0.13900
F3701       F  0.40207337  0.74756119  0.20515975    -0.14400
C3702       C  0.31860931  0.77000302  0.23116403     0.15300
C3703       C  0.29931398  0.77086141  0.24680777     0.24700
C3704       C  0.28281839  0.75682165  0.24472917    -0.41500
C3705       C  0.28577962  0.74249879  0.22543089     0.31700
C3706       C  0.30509402  0.74189507  0.20953733     0.13400
F3707       F  0.33431161  0.78353859  0.23376768    -0.13900
F3708       F  0.27029084  0.72887914  0.22215039    -0.14400
F3709       F  0.29704803  0.78546001  0.26408265    -0.16700
F3710       F  0.30777394  0.72794865  0.19124610    -0.15300
F3711       F  0.36358472  0.74474694  0.23467173    -0.15300
F3712       F  0.35947131  0.76826618  0.12793066    -0.16700
C3713       C  0.42269025  0.39782755  0.27007293     0.13400
C3714       C  0.40168230  0.39190998  0.26058152     0.00300
C3715       C  0.38736194  0.40506760  0.24862014     0.15300
C3716       C  0.39464703  0.42331748  0.24399510     0.24700
C3717       C  0.41646015  0.42887927  0.25131294    -0.41600
C3718       C  0.42999811  0.41615350  0.26557531     0.31800
C3719       C  0.39625341  0.37172390  0.25867189     0.00400
F3720       F  0.36699370  0.39986592  0.23918306    -0.13900
F3721       F  0.45102652  0.42088997  0.27310816    -0.14400
C3722       C  0.37604569  0.36441601  0.26874370     0.15300
C3723       C  0.36975059  0.34599740  0.26287527     0.24700
C3724       C  0.38351216  0.33462133  0.24664967    -0.41500
C3725       C  0.40423208  0.34175776  0.23786735     0.31700
C3726       C  0.41043444  0.36004862  0.24368976     0.13400
F3727       F  0.36209963  0.37528922  0.28355994    -0.13900
F3728       F  0.41842096  0.33117354  0.22294350    -0.14400
F3729       F  0.34966859  0.33970964  0.27179138    -0.16700
F3730       F  0.42980131  0.36672218  0.23310887    -0.15300
F3731       F  0.43672426  0.38549024  0.28217278    -0.15300
F3732       F  0.38067886  0.43525574  0.23093933    -0.16700
C3733       C  0.49956604  0.50984790  0.03106657     0.13400
C3734       C  0.52265960  0.50631524  0.02946804     0.00300
C3735       C  0.53429154  0.50176915  0.05335561     0.15300
C3736       C  0.52309194  0.50034745  0.07822393     0.24700
C3737       C  0.49994313  0.50376687  0.07997228    -0.41600
C3738       C  0.48832818  0.50869622  0.05610580     0.31800
C3739       C  0.53478739  0.50746701  0.00306578     0.00400
F3740       F  0.55672374  0.49913827  0.05272156    -0.13900
F3741       F  0.46600957  0.51189771  0.05684138    -0.14400
C3742       C  0.53483522  0.52408400  0.98793906     0.15300
C3743       C  0.54631089  0.52523414  0.96317328     0.24700
C3744       C  0.55818703  0.50976573  0.95290853    -0.41500
C3745       C  0.55851691  0.49322910  0.96846923     0.31700
C3746       C  0.54684870  0.49208794  0.99318139     0.13400
F3747       F  0.52403598  0.53937213  0.99739943    -0.13900
F3748       F  0.56942876  0.47790162  0.95936944    -0.14400
F3749       F  0.54592838  0.54165364  0.94938270    -0.16700
F3750       F  0.54683797  0.47574607  0.00717271    -0.15300
F3751       F  0.48780403  0.51406554  0.00826668    -0.15300
F3752       F  0.53514172  0.49610297  0.10079398    -0.16700
C3753       C  0.36058142  0.50985308  0.07294352     0.13400
C3754       C  0.34017241  0.50277765  0.08234911     0.00300
C3755       C  0.33862361  0.49536924  0.10865640     0.15300
C3756       C  0.35731000  0.49509961  0.12554299     0.24700
C3757       C  0.37802833  0.50193923  0.11612073    -0.41600
C3758       C  0.37939099  0.50948953  0.08969240     0.31800
C3759       C  0.32036746  0.50332756  0.06479362     0.00400
F3760       F  0.31902112  0.48820984  0.11784770    -0.13900
F3761       F  0.39896615  0.51622473  0.07982632    -0.14400
C3762       C  0.31958440  0.49248955  0.04122532     0.15300
C3763       C  0.30091348  0.49311343  0.02438877     0.24700
C3764       C  0.28259028  0.50471222  0.03086382    -0.41500
C3765       C  0.28342530  0.51537165  0.05487422     0.31700
C3766       C  0.30225141  0.51474341  0.07156162     0.13400
F3767       F  0.33695642  0.48125968  0.03452281    -0.13900
F3768       F  0.26606479  0.52635287  0.06238656    -0.14400
F3769       F  0.30110121  0.48251844  0.00155296    -0.16700
F3770       F  0.30304426  0.52559325  0.09410158    -0.15300
F3771       F  0.36219554  0.51724682  0.04756346    -0.15300
F3772       F  0.35493604  0.48849317  0.15129514    -0.16700
C3773       C  0.55515860  0.49174923  0.32175118     0.13400
C3774       C  0.57261537  0.50422233  0.31626518     0.00300
C3775       C  0.57079029  0.51671579  0.29451603     0.15300
C3776       C  0.55161155  0.51705815  0.27858038     0.24700
C3777       C  0.53360675  0.50480592  0.28410787    -0.41600
C3778       C  0.53579397  0.49197420  0.30579460     0.31800
C3779       C  0.59254672  0.50494343  0.33368377     0.00400
F3780       F  0.58778323  0.52860638  0.28861578    -0.13900
F3781       F  0.51928568  0.47965476  0.31170757    -0.14400
C3782       C  0.60804936  0.49034674  0.33375393     0.15300
C3783       C  0.62767002  0.49177136  0.34901803     0.24700
C3784       C  0.63211664  0.50795579  0.36440519    -0.41500
C3785       C  0.61616789  0.52245972  0.36434370     0.31700
C3786       C  0.59667076  0.52091498  0.34913592     0.13400
F3787       F  0.60436603  0.47487311  0.31859236    -0.13900
F3788       F  0.61923767  0.53825885  0.37899517    -0.14400
F3789       F  0.64205114  0.47718601  0.34886080    -0.16700
F3790       F  0.58168741  0.53510023  0.34948273    -0.15300
F3791       F  0.55671323  0.47962248  0.34291506    -0.15300
F3792       F  0.55100770  0.52938247  0.25757296    -0.16700
C3793       C  0.49539599  0.64651102  0.11009555     0.13400
C3794       C  0.48821995  0.63924363  0.13516034     0.00300
C3795       C  0.47953671  0.65148970  0.15475771     0.15300
C3796       C  0.47768677  0.67059418  0.14924678     0.24700
C3797       C  0.48447262  0.67792097  0.12390746    -0.41600
C3798       C  0.49362180  0.66557838  0.10452463     0.31800
C3799       C  0.48862997  0.61882643  0.14042182     0.00400
F3800       F  0.47196465  0.64482106  0.17893095    -0.13900
F3801       F  0.50018303  0.67174045  0.07964487    -0.14400
C3802       C  0.49945884  0.61156143  0.16345993     0.15300
C3803       C  0.49792618  0.59256677  0.16985199     0.24700
C3804       C  0.48542918  0.58031780  0.15327071    -0.41500
C3805       C  0.47564572  0.58758165  0.12933970     0.31700
C3806       C  0.47716718  0.60658009  0.12310902     0.13400
F3807       F  0.51129673  0.62296041  0.18008010    -0.13900
F3808       F  0.46404290  0.57646599  0.11211965    -0.14400
F3809       F  0.50810747  0.58642470  0.19286185    -0.16700
F3810       F  0.46647080  0.61316081  0.10070972    -0.15300
F3811       F  0.50393021  0.63507959  0.09076491    -0.15300
F3812       F  0.46904530  0.68183421  0.16872216    -0.16700
C3813       C  0.38127081  0.86572305  0.77472460     0.13400
C3814       C  0.40093639  0.87256280  0.76259901     0.00300
C3815       C  0.41380725  0.86053234  0.74652170     0.15300
C3816       C  0.40664993  0.84240419  0.74143985     0.24700
C3817       C  0.38603665  0.83595010  0.75157150    -0.41600
C3818       C  0.37379346  0.84757341  0.76918682     0.31800
C3819       C  0.40681202  0.89266015  0.76351419     0.00400
F3820       F  0.43261102  0.86673130  0.73399780    -0.13900
F3821       F  0.35395901  0.84188702  0.77967387    -0.14400
C3822       C  0.42850528  0.89840848  0.77063070     0.15300
C3823       C  0.43551193  0.91672746  0.76560940     0.24700
C3824       C  0.42090715  0.92960999  0.75342099    -0.41500
C3825       C  0.39873714  0.92416959  0.74811296     0.31700
C3826       C  0.39176172  0.90590649  0.75314334     0.13400
F3827       F  0.44329508  0.88598152  0.78108043    -0.13900
F3828       F  0.38402638  0.93633197  0.73683457    -0.14400
F3829       F  0.45708978  0.92137113  0.77055525    -0.16700
F3830       F  0.37077108  0.90083191  0.74583023    -0.15300
F3831       F  0.36887281  0.87688895  0.79104676    -0.15300
F3832       F  0.41963944  0.83137970  0.72561254    -0.16700
C3833       C  0.27204636  0.73806318  0.49067410     0.13400
C3834       C  0.27132546  0.75446247  0.50612154     0.00300
C3835       C  0.26004390  0.77006060  0.49554340     0.15300
C3836       C  0.24980478  0.76933317  0.46989469     0.24700
C3837       C  0.25054254  0.75290704  0.45422395    -0.41600
C3838       C  0.26188980  0.73728384  0.46503873     0.31800
C3839       C  0.28219784  0.75524710  0.53331670     0.00400
F3840       F  0.25939391  0.78620168  0.50984065    -0.13900
F3841       F  0.26300612  0.72106278  0.45098701    -0.14400
C3842       C  0.30516089  0.75161997  0.53625363     0.15300
C3843       C  0.31535056  0.75249685  0.56189361     0.24700
C3844       C  0.30276558  0.75710405  0.58512759    -0.41500
C3845       C  0.27969012  0.76033744  0.58216391     0.31700
C3846       C  0.26958689  0.75954318  0.55654854     0.13400
F3847       F  0.31787775  0.74774415  0.51413597    -0.13900
F3848       F  0.26671204  0.76386631  0.60419251    -0.14400
F3849       F  0.33764758  0.74937121  0.56380166    -0.16700
F3850       F  0.24731801  0.76271138  0.55450051    -0.15300
F3851       F  0.28226182  0.72260786  0.50067647    -0.15300
F3852       F  0.23985483  0.78495351  0.46008391    -0.16700
C3853       C  0.46590457  0.76335280  0.61790333     0.13400
C3854       C  0.46564188  0.75493546  0.59228020     0.00300
C3855       C  0.44558640  0.74795045  0.58163666     0.15300
C3856       C  0.42574963  0.74996416  0.59620374     0.24700
C3857       C  0.42587826  0.75897189  0.62155991    -0.41600
C3858       C  0.44617229  0.76543425  0.63242029     0.31800
C3859       C  0.48593661  0.75495302  0.57569969     0.00400
F3860       F  0.44512094  0.73987005  0.55670724    -0.13900
F3861       F  0.44699545  0.77355413  0.65729402    -0.14400
C3862       C  0.49578545  0.73816150  0.56770540     0.15300
C3863       C  0.51425217  0.73836564  0.55051298     0.24700
C3864       C  0.52298896  0.75541197  0.54101000    -0.41500
C3865       C  0.51349570  0.77223856  0.54985841     0.31700
C3866       C  0.49508939  0.77198118  0.56712909     0.13400
F3867       F  0.48739310  0.72159838  0.57637756    -0.13900
F3868       F  0.52201809  0.78891431  0.54184975    -0.14400
F3869       F  0.52296598  0.72186790  0.54228977    -0.16700
F3870       F  0.48575260  0.78835233  0.57491913    -0.15300
F3871       F  0.48532247  0.76967339  0.62873538    -0.15300
F3872       F  0.40636796  0.74383630  0.58504954    -0.16700
C3873       C  0.24614534  0.74075755  0.81434542     0.13400
C3874       C  0.23935935  0.75715835  0.82733513     0.00300
C3875       C  0.25270765  0.77318755  0.82547605     0.15300
C3876       C  0.27227982  0.77294456  0.80998373     0.24700
C3877       C  0.27884861  0.75653484  0.79639994    -0.41600
C3878       C  0.26585535  0.74031047  0.79953023     0.31800
C3879       C  0.21852261  0.75701810  0.84320693     0.00400
F3880       F  0.24674944  0.78906121  0.83853690    -0.13900
F3881       F  0.27190054  0.72397604  0.78779326    -0.14400
C3882       C  0.21589189  0.74381299  0.86395960     0.15300
C3883       C  0.19567187  0.74208034  0.87752063     0.24700
C3884       C  0.17738348  0.75361206  0.87065438    -0.41500
C3885       C  0.18021450  0.76711423  0.84997900     0.31700
C3886       C  0.20067628  0.76881884  0.83644329     0.13400
F3887       F  0.23304194  0.73242190  0.87106580    -0.13900
F3888       F  0.16320268  0.77849916  0.84249077    -0.14400
F3889       F  0.19434547  0.72915286  0.89767351    -0.16700
F3890       F  0.20283455  0.78157094  0.81614785    -0.15300
F3891       F  0.23327713  0.72518836  0.81540510    -0.15300
F3892       F  0.28421437  0.78894827  0.80750448    -0.16700
C3893       C  0.37982312  0.76616492  0.87239268     0.13400
C3894       C  0.40072213  0.75829033  0.87837623     0.00300
C3895       C  0.41388935  0.75136672  0.85709345     0.15300
C3896       C  0.40636454  0.75230044  0.83025324     0.24700
C3897       C  0.38533902  0.76010337  0.82407040    -0.41600
C3898       C  0.37213037  0.76699745  0.84554985     0.31800
C3899       C  0.40888550  0.75737406  0.90677458     0.00400
F3900       F  0.43400929  0.74343794  0.86234604    -0.13900
F3901       F  0.35157854  0.77426065  0.84076241    -0.14400
C3902       C  0.39632758  0.74824127  0.92691930     0.15300
C3903       C  0.40375879  0.74780625  0.95387387     0.24700
C3904       C  0.42425076  0.75613681  0.96111169    -0.41500
C3905       C  0.43712396  0.76475148  0.94058634     0.31700
C3906       C  0.42933417  0.76560457  0.91383515     0.13400
F3907       F  0.37687264  0.73961892  0.92043293    -0.13900
F3908       F  0.45737483  0.77230195  0.94625783    -0.14400
F3909       F  0.39055808  0.73960420  0.97290863    -0.16700
F3910       F  0.44160393  0.77483306  0.89486744    -0.15300
F3911       F  0.36696304  0.77330452  0.89256158    -0.15300
F3912       F  0.41989090  0.74570075  0.81033823    -0.16700
C3913       C  0.37747059  0.39824073  0.51908139     0.13400
C3914       C  0.39900737  0.39250566  0.52702464     0.00300
C3915       C  0.41388860  0.40588258  0.53736791     0.15300
C3916       C  0.40698085  0.42423502  0.54134750     0.24700
C3917       C  0.38493283  0.42966924  0.53540700    -0.41600
C3918       C  0.37045802  0.41665026  0.52331872     0.31800
C3919       C  0.40511953  0.37241121  0.52816735     0.00400
F3920       F  0.43465337  0.40091280  0.54572063    -0.13900
F3921       F  0.34901889  0.42129316  0.51754024    -0.14400
C3922       C  0.42573679  0.36609181  0.51798087     0.15300
C3923       C  0.43331212  0.34807351  0.52396743     0.24700
C3924       C  0.42017380  0.33586632  0.53970754    -0.41500
C3925       C  0.39881253  0.34172385  0.54800911     0.31700
C3926       C  0.39152371  0.35985139  0.54267661     0.13400
F3927       F  0.43898422  0.37763078  0.50314133    -0.13900
F3928       F  0.38514440  0.33005818  0.56205763    -0.14400
F3929       F  0.45409452  0.34304776  0.51584934    -0.16700
F3930       F  0.37178044  0.36547683  0.55341687    -0.15300
F3931       F  0.36284982  0.38578978  0.50841091    -0.15300
F3932       F  0.42167989  0.43653158  0.55223932    -0.16700
C3933       C  0.24472414  0.50671018  0.77730263     0.13400
C3934       C  0.26622594  0.51427713  0.77406529     0.00300
C3935       C  0.27646048  0.52314530  0.79611059     0.15300
C3936       C  0.26565820  0.52417794  0.82116406     0.24700
C3937       C  0.24429284  0.51618419  0.82488944    -0.41600
C3938       C  0.23382188  0.50763742  0.80251090     0.31800
C3939       C  0.27844769  0.51247770  0.74805429     0.00400
F3940       F  0.29736479  0.53028496  0.79364239    -0.13900
F3941       F  0.21297037  0.50040575  0.80487455    -0.14400
C3942       C  0.28576100  0.52841365  0.73390585     0.15300
C3943       C  0.29795102  0.52664975  0.70976727     0.24700
C3944       C  0.30313669  0.50889679  0.69952774    -0.41500
C3945       C  0.29594157  0.49298331  0.71385182     0.31700
C3946       C  0.28375578  0.49476514  0.73792553     0.13400
F3947       F  0.28077850  0.54568549  0.74329484    -0.13900
F3948       F  0.30108654  0.47566502  0.70477401    -0.14400
F3949       F  0.30391468  0.54226498  0.69587945    -0.16700
F3950       F  0.27761182  0.47917729  0.75175036    -0.15300
F3951       F  0.23424991  0.49854090  0.75595667    -0.15300
F3952       F  0.27663997  0.53248765  0.84201663    -0.16700
C3953       C  0.49942070  0.52637976  0.71725032     0.13400
C3954       C  0.48623396  0.51053569  0.71319504     0.00300
C3955       C  0.49173812  0.49379196  0.72623740     0.15300
C3956       C  0.51026064  0.49282332  0.74337128     0.24700
C3957       C  0.52382621  0.50862104  0.74746262    -0.41600
C3958       C  0.51816436  0.52545417  0.73413017     0.31800
C3959       C  0.46635009  0.51130702  0.69578643     0.00400
F3960       F  0.47896329  0.47838263  0.72249501    -0.13900
F3961       F  0.53026670  0.54120762  0.73802101    -0.14400
C3962       C  0.46785531  0.50621509  0.66837790     0.15300
C3963       C  0.44854412  0.50459063  0.65268493     0.24700
C3964       C  0.42746500  0.50825155  0.66419853    -0.41500
C3965       C  0.42615881  0.51410590  0.69143612     0.31700
C3966       C  0.44550955  0.51549365  0.70716232     0.13400
F3967       F  0.48800557  0.50244375  0.65703090    -0.13900
F3968       F  0.40610943  0.51764267  0.70318733    -0.14400
F3969       F  0.45047390  0.49951377  0.62620384    -0.16700
F3970       F  0.44390622  0.52034708  0.73375177    -0.15300
F3971       F  0.49394142  0.54278526  0.70515023    -0.15300
F3972       F  0.51492195  0.47635441  0.75577588    -0.16700
C3973       C  0.20018168  0.50469403  0.45342223     0.13400
C3974       C  0.21930087  0.51369561  0.44339101     0.00300
C3975       C  0.21801588  0.52428293  0.41950391     0.15300
C3976       C  0.19789189  0.52587655  0.40564951     0.24700
C3977       C  0.17863721  0.51660773  0.41523623    -0.41600
C3978       C  0.17996714  0.50608652  0.43941495     0.31800
C3979       C  0.24047030  0.51276295  0.45834507     0.00400
F3980       F  0.23645915  0.53280701  0.40927404    -0.13900
F3981       F  0.16170878  0.49735075  0.44969886    -0.14400
C3982       C  0.25101693  0.49559941  0.46298115     0.15300
C3983       C  0.27067136  0.49482521  0.47817853     0.24700
C3984       C  0.27973470  0.51123110  0.48928249    -0.41500
C3985       C  0.26962578  0.52847517  0.48342729     0.31700
C3986       C  0.25013137  0.52920788  0.46815610     0.13400
F3987       F  0.24204923  0.47959042  0.45318792    -0.13900
F3988       F  0.27831166  0.54464179  0.49306310    -0.14400
F3989       F  0.28006293  0.47795897  0.48320355    -0.16700
F3990       F  0.24014361  0.54594242  0.46388777    -0.15300
F3991       F  0.20104671  0.49480655  0.47699447    -0.15300
F3992       F  0.19761335  0.53600758  0.38230322    -0.16700
C3993       C  0.43174848  0.50078646  0.37117472     0.13400
C3994       C  0.41006301  0.50656342  0.37783531     0.00300
C3995       C  0.39566179  0.51250102  0.35707081     0.15300
C3996       C  0.40266885  0.51240244  0.32990919     0.24700
C3997       C  0.42417179  0.50596223  0.32290560    -0.41600
C3998       C  0.43870781  0.50032585  0.34396506     0.31800
C3999       C  0.40220287  0.50605874  0.40637848     0.00400
F4000       F  0.37473968  0.51841452  0.36317828    -0.13900
F4001       F  0.45980256  0.49463130  0.33831836    -0.14400
C4002       C  0.40964469  0.51933345  0.42512069     0.15300
C4003       C  0.40184324  0.51907036  0.45196773     0.24700
C4004       C  0.38630541  0.50541946  0.46072659    -0.41500
C4005       C  0.37896085  0.49208287  0.44160374     0.31700
C4006       C  0.38686424  0.49244519  0.41478534     0.13400
F4007       F  0.42420593  0.53281521  0.41724493    -0.13900
F4008       F  0.36412445  0.47860949  0.44866352    -0.14400
F4009       F  0.40943890  0.53240139  0.46917283    -0.16700
F4010       F  0.37963314  0.47937512  0.39693391    -0.15300
F4011       F  0.44607389  0.49531633  0.39104285    -0.15300
F4012       F  0.38813873  0.51820464  0.31046442    -0.16700
C4013       C  0.30699130  0.64990789  0.66897655     0.13400
C4014       C  0.32018329  0.64265765  0.64791793     0.00300
C4015       C  0.33471895  0.65453130  0.63383672     0.15300
C4016       C  0.33632857  0.67331433  0.64076303     0.24700
C4017       C  0.32338142  0.68081055  0.66217667    -0.41600
C4018       C  0.30844512  0.66880620  0.67598134     0.31800
C4019       C  0.31957322  0.62259959  0.64098155     0.00400
F4020       F  0.34803772  0.64774516  0.61383824    -0.13900
F4021       F  0.29537431  0.67519393  0.69647569    -0.14400
C4022       C  0.31295690  0.61685873  0.61493021     0.15300
C4023       C  0.31415294  0.59806941  0.60752208     0.24700
C4024       C  0.32245414  0.58461978  0.62591447    -0.41500
C4025       C  0.32902254  0.59053150  0.65213514     0.31700
C4026       C  0.32740596  0.60928354  0.65959132     0.13400
F4027       F  0.30583618  0.62958860  0.59637953    -0.13900
F4028       F  0.33747361  0.57828591  0.67053012    -0.14400
F4029       F  0.30822010  0.59328173  0.58183749    -0.16700
F4030       F  0.33452424  0.61460325  0.68461517    -0.15300
F4031       F  0.29270256  0.63864895  0.68279264    -0.15300
F4032       F  0.35109693  0.68392158  0.62667767    -0.16700
loop_ 
_geom_bond_atom_site_label_1 
_geom_bond_atom_site_label_2 
_geom_bond_distance 
_geom_bond_site_symmetry_2 
_ccdc_geom_bond_type 
Zr1           O2   2.441       .  S
Zr1           O3   2.444       .  S
Zr1           O4   2.434       .  S
Zr1           O7   2.431       .  S
Zr1           O9   2.375       .  S
Zr1          O10   2.388       .  S
Zr1          O11   2.411       .  S
Zr1          O12   2.404       .  S
O2           H58   0.990       .  S
O2           H66   0.991       .  S
O3           C23   1.285       .  A
O4           C25   1.283       .  A
O5          Zr15   2.417       .  S
O5           C24   1.282       .  A
O6          Zr14   2.444       .  S
O6           C25   1.286       .  A
O7           C24   1.283       .  A
O8          Zr16   2.405       .  S
O8           C23   1.278       .  A
O9          Zr14   2.389       .  S
O9          Zr16   2.385       .  S
O10         Zr15   2.397       .  S
O10         Zr16   2.382       .  S
O10          H45   0.967       .  S
O11         Zr14   2.389       .  S
O11         Zr31   2.395       .  S
O11          H48   0.965       .  S
O12         Zr15   2.385       .  S
O12         Zr31   2.390       .  S
Zr13         O38   2.444       .  S
Zr13         O32   2.440       .  S
Zr13         O40   2.444       .  S
Zr13         O28   2.425       .  S
Zr13         O19   2.402       .  S
Zr13         O20   2.406       .  S
Zr13         O21   2.384       .  S
Zr13         O22   2.379       .  S
Zr14         O33   2.437       .  S
Zr14         O26   2.436       .  S
Zr14         O27   2.410       .  S
Zr14         O20   2.401       .  S
Zr14         O21   2.388       .  S
Zr15         O17   2.435       .  S
Zr15         O39   2.436       .  S
Zr15         O41   2.424       .  S
Zr15         O19   2.388       .  S
Zr15         O22   2.385       .  S
Zr16         O42   2.435       .  S
Zr16         O43   2.437       .  S
Zr16         O18   2.438       .  S
Zr16         O19   2.395       .  S
Zr16         O20   2.387       .  S
O17          H54   0.990       .  S
O18          H49   0.990       .  S
O18          H63   0.990       .  S
O20          H46   0.966       .  S
O21         Zr31   2.368       .  S
O22         Zr31   2.373       .  S
O22          H47   0.966       .  S
C23        C3944   1.477       .  S
C24        C3964   1.475       .  S
C25        C4024   1.492       .  S
O26          H62   0.990       .  S
O27          C29   1.282       .  A
O28          C29   1.284       .  A
C29        C3984   1.470       .  S
O30         Zr31   2.438       .  S
O30          H59   0.990       .  S
Zr31         O34   2.437       .  S
Zr31         O35   2.438       .  S
Zr31         O36   2.429       .  S
O32          C37   1.287       .  A
O33          H50   0.990       .  S
O33          H65   0.990       .  S
O34          H51   0.990       .  S
O35          H55   0.990       .  S
O35          H64   0.990       .  S
O36          C37   1.284       .  A
C37        C4004   1.498       .  S
O38          H57   0.990       .  S
O38          H61   0.990       .  S
O39          H53   0.990       .  S
O39          H60   0.990       .  S
O40          C44   1.286       .  A
O41          C44   1.284       .  A
O42          H52   0.990       .  S
O43          H56   0.990       .  S
C44        C3917   1.484       .  S
Zr67         O68   2.441       .  S
Zr67         O69   2.439       .  S
Zr67         O70   2.435       .  S
Zr67         O73   2.423       .  S
Zr67         O75   2.373       .  S
Zr67         O76   2.385       .  S
Zr67         O77   2.411       .  S
Zr67         O78   2.402       .  S
O68         H124   0.990       .  S
O68         H132   0.990       .  S
O69          C89   1.283       .  A
O70          C91   1.284       .  A
O71         Zr81   2.412       .  S
O71          C90   1.281       .  A
O72         Zr80   2.441       .  S
O72          C91   1.286       .  A
O73          C90   1.282       .  A
O74         Zr82   2.414       .  S
O74          C89   1.280       .  A
O75         Zr80   2.392       .  S
O75         Zr82   2.383       .  S
O76         Zr81   2.395       .  S
O76         Zr82   2.378       .  S
O76         H111   0.967       .  S
O77         Zr80   2.394       .  S
O77         Zr97   2.392       .  S
O77         H114   0.965       .  S
O78         Zr81   2.388       .  S
O78         Zr97   2.389       .  S
Zr79        O104   2.442       .  S
Zr79         O98   2.429       .  S
Zr79        O106   2.440       .  S
Zr79         O94   2.421       .  S
Zr79         O85   2.400       .  S
Zr79         O86   2.406       .  S
Zr79         O87   2.383       .  S
Zr79         O88   2.377       .  S
Zr80         O99   2.437       .  S
Zr80         O92   2.434       .  S
Zr80         O93   2.418       .  S
Zr80         O86   2.401       .  S
Zr80         O87   2.387       .  S
Zr81         O83   2.435       .  S
Zr81        O105   2.436       .  S
Zr81        O107   2.428       .  S
Zr81         O85   2.382       .  S
Zr81         O88   2.384       .  S
Zr82        O108   2.435       .  S
Zr82        O109   2.436       .  S
Zr82         O84   2.437       .  S
Zr82         O85   2.401       .  S
Zr82         O86   2.386       .  S
O83         H120   0.990       .  S
O84         H115   0.990       .  S
O84         H129   0.990       .  S
O86         H112   0.966       .  S
O87         Zr97   2.370       .  S
O88         Zr97   2.370       .  S
O88         H113   0.966       .  S
C89        C3844   1.486       .  S
C90        C3857   1.467       .  S
C91        C4017   1.496       .  S
O92         H128   0.990       .  S
O93          C95   1.284       .  A
O94          C95   1.283       .  A
C95        C3877   1.477       .  S
O96         Zr97   2.438       .  S
O96         H125   0.990       .  S
Zr97        O100   2.436       .  S
Zr97        O101   2.439       .  S
Zr97        O102   2.420       .  S
O98         C103   1.284       .  A
O99         H116   0.990       .  S
O99         H131   0.990       .  S
O100        H117   0.990       .  S
O101        H121   0.990       .  S
O101        H130   0.990       .  S
O102        C103   1.282       .  A
C103       C3897   1.486       .  S
O104        H123   0.990       .  S
O104        H127   0.990       .  S
O105        H119   0.990       .  S
O105        H126   0.990       .  S
O106        C110   1.285       .  A
O107        C110   1.285       .  A
O108        H118   0.990       .  S
O109        H122   0.990       .  S
C110       C3817   1.487       .  S
Zr133       O134   2.441       .  S
Zr133       O135   2.457       .  S
Zr133       O136   2.450       .  S
Zr133       O139   2.437       .  S
Zr133       O141   2.377       .  S
Zr133       O142   2.388       .  S
Zr133       O143   2.413       .  S
Zr133       O144   2.409       .  S
O134        H190   0.990       .  S
O134        H198   0.990       .  S
O135        C155   1.287       .  A
O136        C157   1.287       .  A
O137       Zr147   2.407       .  S
O137        C156   1.280       .  A
O138       Zr146   2.430       .  S
O138        C157   1.283       .  A
O139        C156   1.285       .  A
O140       Zr148   2.414       .  S
O140        C155   1.280       .  A
O141       Zr146   2.389       .  S
O141       Zr148   2.382       .  S
O142       Zr147   2.392       .  S
O142       Zr148   2.378       .  S
O142        H177   0.966       .  S
O143       Zr146   2.393       .  S
O143       Zr163   2.394       .  S
O143        H180   0.965       .  S
O144       Zr147   2.388       .  S
O144       Zr163   2.396       .  S
Zr145       O170   2.447       .  S
Zr145       O164   2.438       .  S
Zr145       O172   2.466       .  S
Zr145       O160   2.455       .  S
Zr145       O151   2.405       .  S
Zr145       O152   2.411       .  S
Zr145       O153   2.386       .  S
Zr145       O154   2.383       .  S
Zr146       O165   2.437       .  S
Zr146       O158   2.434       .  S
Zr146       O159   2.406       .  S
Zr146       O152   2.401       .  S
Zr146       O153   2.390       .  S
Zr147       O149   2.436       .  S
Zr147       O171   2.436       .  S
Zr147       O173   2.409       .  S
Zr147       O151   2.382       .  S
Zr147       O154   2.388       .  S
Zr148       O174   2.435       .  S
Zr148       O175   2.436       .  S
Zr148       O150   2.437       .  S
Zr148       O151   2.398       .  S
Zr148       O152   2.382       .  S
O149        H186   0.990       .  S
O150        H181   0.990       .  S
O150        H195   0.990       .  S
O152        H178   0.965       .  S
O153       Zr163   2.374       .  S
O154       Zr163   2.368       .  S
O154        H179   0.966       .  S
C155       C3737   1.489       .  S
C156       C3757   1.479       .  S
C157       C3804   1.497       .  S
O158        H194   0.990       .  S
O159        C161   1.281       .  A
O160        C161   1.289       .  A
C161       C3777   1.490       .  S
O162       Zr163   2.438       .  S
O162        H191   0.990       .  S
Zr163       O166   2.436       .  S
Zr163       O167   2.440       .  S
Zr163       O168   2.431       .  S
O164        C169   1.286       .  A
O165        H182   0.990       .  S
O165        H197   0.990       .  S
O166        H183   0.990       .  S
O167        H187   0.990       .  S
O167        H196   0.990       .  S
O168        C169   1.284       .  A
C169       C3997   1.490       .  S
O170        H189   0.990       .  S
O170        H193   0.990       .  S
O171        H185   0.990       .  S
O171        H192   0.990       .  S
O172        C176   1.291       .  A
O173        C176   1.281       .  A
O174        H184   0.990       .  S
O175        H188   0.990       .  S
C176       C3717   1.490       .  S
Zr199       O200   2.441       .  S
Zr199       O201   2.444       .  S
Zr199       O202   2.458       .  S
Zr199       O205   2.435       .  S
Zr199       O207   2.376       .  S
Zr199       O208   2.388       .  S
Zr199       O209   2.410       .  S
Zr199       O210   2.407       .  S
O200        H256   0.990       .  S
O200        H264   0.990       .  S
O201        C221   1.285       .  A
O202        C223   1.288       .  A
O203       Zr213   2.400       .  S
O203        C222   1.279       .  A
O204       Zr212   2.423       .  S
O204        C223   1.282       .  A
O205        C222   1.284       .  A
O206       Zr214   2.406       .  S
O206        C221   1.279       .  A
O207       Zr212   2.386       .  S
O207       Zr214   2.385       .  S
O208       Zr213   2.395       .  S
O208       Zr214   2.376       .  S
O208        H243   0.966       .  S
O209       Zr212   2.392       .  S
O209       Zr229   2.390       .  S
O209        H246   0.964       .  S
O210       Zr213   2.387       .  S
O210       Zr229   2.391       .  S
Zr211       O236   2.444       .  S
Zr211       O230   2.425   1_554  S
Zr211       O238   2.458       .  S
Zr211       O226   2.441       .  S
Zr211       O217   2.400       .  S
Zr211       O218   2.404       .  S
Zr211       O219   2.385       .  S
Zr211       O220   2.380       .  S
Zr212       O231   2.437       .  S
Zr212       O224   2.434       .  S
Zr212       O225   2.395       .  S
Zr212       O218   2.396       .  S
Zr212       O219   2.386       .  S
Zr213       O215   2.435       .  S
Zr213       O237   2.437       .  S
Zr213       O239   2.413       .  S
Zr213       O217   2.384       .  S
Zr213       O220   2.380       .  S
Zr214       O240   2.435       .  S
Zr214       O241   2.436       .  S
Zr214       O216   2.437       .  S
Zr214       O217   2.393       .  S
Zr214       O218   2.387       .  S
O215        H252   0.990       .  S
O216        H247   0.990       .  S
O216        H261   0.990       .  S
O218        H244   0.966       .  S
O219       Zr229   2.372       .  S
O220       Zr229   2.372       .  S
O220        H245   0.966       .  S
C221       C3657   1.490       .  S
C222       C3697   1.467       .  S
C223       C3797   1.493       .  S
O224        H260   0.990       .  S
O225        C227   1.279       .  A
O226        C227   1.286       .  A
C227       C3677   1.476   1_554  S
O228       Zr229   2.439       .  S
O228        H257   0.990       .  S
Zr229       O232   2.437       .  S
Zr229       O233   2.440       .  S
Zr229       O234   2.428       .  S
O230        C235   1.284       .  A
O231        H248   0.990       .  S
O231        H263   0.990       .  S
O232        H249   0.990       .  S
O233        H253   0.990       .  S
O233        H262   0.990       .  S
O234        C235   1.284   1_554  A
C235       C3904   1.486       .  S
O236        H255   0.990       .  S
O236        H259   0.990       .  S
O237        H251   0.990       .  S
O237        H258   0.990       .  S
O238        C242   1.289       .  A
O239        C242   1.282       .  A
O240        H250   0.990       .  S
O241        H254   0.990       .  S
C242       C3637   1.486       .  S
Zr265       O266   2.439       .  S
Zr265       O267   2.428       .  S
Zr265       O268   2.463       .  S
Zr265       O271   2.427       .  S
Zr265       O273   2.374       .  S
Zr265       O274   2.393       .  S
Zr265       O275   2.400       .  S
Zr265       O276   2.400       .  S
O266        H322   0.990       .  S
O266        H330   0.990       .  S
O267        C287   1.283       .  A
O268        C289   1.288       .  A
O269       Zr279   2.416       .  S
O269        C288   1.283       .  A
O270       Zr278   2.411       .  S
O270        C289   1.281       .  A
O271        C288   1.284       .  A
O272       Zr280   2.435       .  S
O272        C287   1.284       .  A
O273       Zr278   2.389       .  S
O273       Zr280   2.378       .  S
O274       Zr279   2.395       .  S
O274       Zr280   2.370       .  S
O274        H309   0.965       .  S
O275       Zr278   2.388       .  S
O275       Zr295   2.398       .  S
O275        H312   0.966       .  S
O276       Zr279   2.390       .  S
O276       Zr295   2.378       .  S
Zr277       O302   2.441       .  S
Zr277       O296   2.455       .  S
Zr277       O304   2.438       .  S
Zr277       O292   2.441       .  S
Zr277       O283   2.412       .  S
Zr277       O284   2.418       .  S
Zr277       O285   2.379       .  S
Zr277       O286   2.380       .  S
Zr278       O297   2.435       .  S
Zr278       O290   2.432       .  S
Zr278       O291   2.405       .  S
Zr278       O284   2.400       .  S
Zr278       O285   2.391       .  S
Zr279       O281   2.435       .  S
Zr279       O303   2.437       .  S
Zr279       O305   2.434       .  S
Zr279       O283   2.386       .  S
Zr279       O286   2.389       .  S
Zr280       O306   2.436       .  S
Zr280       O307   2.436       .  S
Zr280       O282   2.437       .  S
Zr280       O283   2.402       .  S
Zr280       O284   2.396       .  S
O281        H318   0.990       .  S
O282        H313   0.990       .  S
O282        H327   0.990       .  S
O284        H310   0.965       .  S
O285       Zr295   2.383       .  S
O286       Zr295   2.382       .  S
O286        H311   0.966       .  S
C287       C3597   1.496       .  S
C288       C3577   1.484       .  S
C289       C3537   1.487       .  S
O290        H326   0.990       .  S
O291        C293   1.279       .  A
O292        C293   1.284       .  A
C293       C3977   1.476       .  S
O294       Zr295   2.438       .  S
O294        H323   0.990       .  S
Zr295       O298   2.436       .  S
Zr295       O299   2.440       .  S
Zr295       O300   2.406       .  S
O296        C301   1.287       .  A
O297        H314   0.990       .  S
O297        H329   0.990       .  S
O298        H315   0.990       .  S
O299        H319   0.990       .  S
O299        H328   0.990       .  S
O300        C301   1.279       .  A
C301       C3564   1.491       .  S
O302        H321   0.990       .  S
O302        H325   0.990       .  S
O303        H317   0.990       .  S
O303        H324   0.990       .  S
O304        C308   1.284       .  A
O305        C308   1.285       .  A
O306        H316   0.990       .  S
O307        H320   0.990       .  S
C308       C3617   1.498       .  S
Zr331       O332   2.440       .  S
Zr331       O333   2.437       .  S
Zr331       O334   2.464       .  S
Zr331       O337   2.441       .  S
Zr331       O339   2.379       .  S
Zr331       O340   2.388       .  S
Zr331       O341   2.403       .  S
Zr331       O342   2.405       .  S
O332        H388   0.990       .  S
O332        H396   0.990       .  S
O333        C353   1.284       .  A
O334        C355   1.289       .  A
O335       Zr345   2.411       .  S
O335        C354   1.282       .  A
O336       Zr344   2.418       .  S
O336        C355   1.282       .  A
O337        C354   1.286       .  A
O338       Zr346   2.418       .  S
O338        C353   1.281       .  A
O339       Zr344   2.387       .  S
O339       Zr346   2.377       .  S
O340       Zr345   2.393       .  S
O340       Zr346   2.375       .  S
O340        H375   0.965       .  S
O341       Zr344   2.394       .  S
O341       Zr361   2.394       .  S
O341        H378   0.965       .  S
O342       Zr345   2.395       .  S
O342       Zr361   2.391       .  S
Zr343       O368   2.440       .  S
Zr343       O362   2.468       .  S
Zr343       O370   2.450       .  S
Zr343       O358   2.452       .  S
Zr343       O349   2.403       .  S
Zr343       O350   2.419       .  S
Zr343       O351   2.381       .  S
Zr343       O352   2.382       .  S
Zr344       O363   2.437       .  S
Zr344       O356   2.436       .  S
Zr344       O357   2.405       .  S
Zr344       O350   2.398       .  S
Zr344       O351   2.396       .  S
Zr345       O347   2.435       .  S
Zr345       O369   2.438       .  S
Zr345       O371   2.436       .  S
Zr345       O349   2.381       .  S
Zr345       O352   2.392       .  S
Zr346       O372   2.437       .  S
Zr346       O373   2.435       .  S
Zr346       O348   2.437       .  S
Zr346       O349   2.386       .  S
Zr346       O350   2.396       .  S
O347        H384   0.990       .  S
O348        H379   0.990       .  S
O348        H393   0.990       .  S
O350        H376   0.965       .  S
O351       Zr361   2.376       .  S
O352       Zr361   2.386       .  S
O352        H377   0.965       .  S
C353       C3524   1.483       .  S
C354       C3477   1.479       .  S
C355       C3437   1.497       .  S
O356        H392   0.990       .  S
O357        C359   1.280       .  A
O358        C359   1.286       .  A
C359       C3497   1.478       .  S
O360       Zr361   2.438       .  S
O360        H389   0.990       .  S
Zr361       O364   2.437       .  S
Zr361       O365   2.439       .  S
Zr361       O366   2.409       .  S
O362        C367   1.290       .  A
O363        H380   0.990       .  S
O363        H395   0.990       .  S
O364        H381   0.990       .  S
O365        H385   0.990       .  S
O365        H394   0.990       .  S
O366        C367   1.279       .  A
C367       C3464   1.492       .  S
O368        H387   0.990       .  S
O368        H391   0.990       .  S
O369        H383   0.990       .  S
O369        H390   0.990       .  S
O370        C374   1.288       .  A
O371        C374   1.285       .  A
O372        H382   0.990       .  S
O373        H386   0.990       .  S
C374       C3624   1.496       .  S
Zr397       O398   2.439   1_556  S
Zr397       O399   2.421   1_556  S
Zr397       O400   2.470   1_556  S
Zr397       O403   2.434   1_556  S
Zr397       O405   2.376       .  S
Zr397       O406   2.392       .  S
Zr397       O407   2.397       .  S
Zr397       O408   2.404       .  S
O398        H454   0.990       .  S
O398        H462   0.990       .  S
O399        C419   1.282       .  A
O400        C421   1.291   1_554  A
O401       Zr411   2.400       .  S
O401        C420   1.280   1_556  A
O402       Zr410   2.413       .  S
O402        C421   1.282       .  A
O403        C420   1.287       .  A
O404       Zr412   2.441   1_554  S
O404        C419   1.286       .  A
O405       Zr410   2.386       .  S
O405       Zr412   2.373       .  S
O406       Zr411   2.392       .  S
O406       Zr412   2.366       .  S
O406        H441   0.966   1_556  S
O407       Zr410   2.391       .  S
O407       Zr427   2.391       .  S
O407        H444   0.966       .  S
O408       Zr411   2.400       .  S
O408       Zr427   2.388       .  S
Zr409       O434   2.443       .  S
Zr409       O428   2.459       .  S
Zr409       O436   2.449       .  S
Zr409       O424   2.437       .  S
Zr409       O415   2.407       .  S
Zr409       O416   2.421       .  S
Zr409       O417   2.385       .  S
Zr409       O418   2.378       .  S
Zr410       O429   2.436       .  S
Zr410       O422   2.434       .  S
Zr410       O423   2.402       .  S
Zr410       O416   2.399       .  S
Zr410       O417   2.394       .  S
Zr411       O413   2.435       .  S
Zr411       O435   2.436       .  S
Zr411       O437   2.441       .  S
Zr411       O415   2.379       .  S
Zr411       O418   2.384       .  S
Zr412       O438   2.437       .  S
Zr412       O439   2.434       .  S
Zr412       O414   2.438       .  S
Zr412       O415   2.402       .  S
Zr412       O416   2.394       .  S
O413        H450   0.990       .  S
O414        H445   0.990       .  S
O414        H459   0.990       .  S
O416        H442   0.964       .  S
O417       Zr427   2.381       .  S
O418       Zr427   2.389       .  S
O418        H443   0.966       .  S
C419       C3604   1.492       .  S
C420       C3764   1.482       .  S
C421       C3384   1.496   1_556  S
O422        H458   0.990       .  S
O423        C425   1.279       .  A
O424        C425   1.283       .  A
C425       C3404   1.463       .  S
O426       Zr427   2.439       .  S
O426        H455   0.991       .  S
Zr427       O430   2.438       .  S
Zr427       O431   2.441       .  S
Zr427       O432   2.397       .  S
O428        C433   1.287       .  A
O429        H446   0.990       .  S
O429        H461   0.990       .  S
O430        H447   0.990       .  S
O431        H451   0.990       .  S
O431        H460   0.990       .  S
O432        C433   1.277       .  A
C433       C3937   1.487       .  S
O434        H453   0.991       .  S
O434        H457   0.990       .  S
O435        H449   0.990       .  S
O435        H456   0.990       .  S
O436        C440   1.287       .  A
O437        C440   1.285       .  A
O438        H448   0.990   1_556  S
O439        H452   0.990       .  S
C440       C3417   1.503       .  S
Zr463       O464   2.440       .  S
Zr463       O465   2.433       .  S
Zr463       O466   2.457       .  S
Zr463       O469   2.419       .  S
Zr463       O471   2.374       .  S
Zr463       O472   2.391       .  S
Zr463       O473   2.401       .  S
Zr463       O474   2.399       .  S
O464        H520   0.990       .  S
O464        H528   0.990       .  S
O465        C485   1.284       .  A
O466        C487   1.288       .  A
O467       Zr477   2.420       .  S
O467        C486   1.284       .  A
O468       Zr476   2.423       .  S
O468        C487   1.283       .  A
O469        C486   1.282       .  A
O470       Zr478   2.418       .  S
O470        C485   1.281       .  A
O471       Zr476   2.390       .  S
O471       Zr478   2.376       .  S
O472       Zr477   2.397       .  S
O472       Zr478   2.374       .  S
O472        H507   0.966       .  S
O473       Zr476   2.388       .  S
O473       Zr493   2.396       .  S
O473        H510   0.966       .  S
O474       Zr477   2.394       .  S
O474       Zr493   2.381       .  S
Zr475       O500   2.440       .  S
Zr475       O494   2.460       .  S
Zr475       O502   2.464       .  S
Zr475       O490   2.440       .  S
Zr475       O481   2.401       .  S
Zr475       O482   2.420       .  S
Zr475       O483   2.386       .  S
Zr475       O484   2.384       .  S
Zr476       O495   2.435       .  S
Zr476       O488   2.434       .  S
Zr476       O489   2.410       .  S
Zr476       O482   2.399       .  S
Zr476       O483   2.393       .  S
Zr477       O479   2.437       .  S
Zr477       O501   2.435       .  S
Zr477       O503   2.456       .  S
Zr477       O481   2.382       .  S
Zr477       O484   2.391       .  S
Zr478       O504   2.437       .  S
Zr478       O505   2.435       .  S
Zr478       O480   2.436       .  S
Zr478       O481   2.392       .  S
Zr478       O482   2.387       .  S
O479        H516   0.990       .  S
O480        H511   0.990       .  S
O480        H525   0.990       .  S
O482        H508   0.964       .  S
O483       Zr493   2.379       .  S
O484       Zr493   2.394       .  S
O484        H509   0.965       .  S
C485       C3517   1.489       .  S
C486       C3364   1.466       .  S
C487       C3304   1.491       .  S
O488        H524   0.990       .  S
O489        C491   1.281       .  A
O490        C491   1.285       .  A
C491       C3337   1.478       .  S
O492       Zr493   2.439       .  S
O492        H521   0.990       .  S
Zr493       O496   2.439       .  S
Zr493       O497   2.438       .  S
Zr493       O498   2.402       .  S
O494        C499   1.288       .  A
O495        H512   0.990       .  S
O495        H527   0.990       .  S
O496        H513   0.990       .  S
O497        H517   0.990       .  S
O497        H526   0.990       .  S
O498        C499   1.278       .  A
C499       C3317   1.486       .  S
O500        H519   0.990       .  S
O500        H523   0.990       .  S
O501        H515   0.990       .  S
O501        H522   0.990       .  S
O502        C506   1.289       .  A
O503        C506   1.289       .  A
O504        H514   0.990       .  S
O505        H518   0.990       .  S
C506       C3424   1.510       .  S
Zr529       O530   2.440       .  S
Zr529       O531   2.433       .  S
Zr529       O532   2.443       .  S
Zr529       O535   2.432       .  S
Zr529       O537   2.374       .  S
Zr529       O538   2.387       .  S
Zr529       O539   2.408       .  S
Zr529       O540   2.402       .  S
O530        H586   0.990       .  S
O530        H594   0.990       .  S
O531        C551   1.283       .  A
O532        C553   1.285       .  A
O533       Zr543   2.412       .  S
O533        C552   1.282       .  A
O534       Zr542   2.417       .  S
O534        C553   1.281       .  A
O535        C552   1.284       .  A
O536       Zr544   2.408       .  S
O536        C551   1.280       .  A
O537       Zr542   2.386       .  S
O537       Zr544   2.379       .  S
O538       Zr543   2.389       .  S
O538       Zr544   2.374       .  S
O538        H573   0.967       .  S
O539       Zr542   2.392       .  S
O539       Zr559   2.399       .  S
O539        H576   0.966       .  S
O540       Zr543   2.388       .  S
O540       Zr559   2.392       .  S
Zr541       O566   2.447       .  S
Zr541       O560   2.432       .  S
Zr541       O568   2.452       .  S
Zr541       O556   2.445       .  S
Zr541       O547   2.404       .  S
Zr541       O548   2.405       .  S
Zr541       O549   2.386       .  S
Zr541       O550   2.382       .  S
Zr542       O561   2.435       .  S
Zr542       O554   2.434       .  S
Zr542       O555   2.404       .  S
Zr542       O548   2.396       .  S
Zr542       O549   2.386       .  S
Zr543       O545   2.435       .  S
Zr543       O567   2.436       .  S
Zr543       O569   2.420       .  S
Zr543       O547   2.387       .  S
Zr543       O550   2.383       .  S
Zr544       O570   2.435       .  S
Zr544       O571   2.436       .  S
Zr544       O546   2.437       .  S
Zr544       O547   2.394       .  S
Zr544       O548   2.383       .  S
O545        H582   0.990       .  S
O546        H577   0.990       .  S
O546        H591   0.990       .  S
O548        H574   0.966       .  S
O549       Zr559   2.377       .  S
O550       Zr559   2.373       .  S
O550        H575   0.966       .  S
C551       C3324   1.475       .  S
C552       C3244   1.481       .  S
C553       C3277   1.490       .  S
O554        H590   0.990       .  S
O555        C557   1.281       .  A
O556        C557   1.287       .  A
C557       C3504   1.476       .  S
O558       Zr559   2.439       .  S
O558        H587   0.990       .  S
Zr559       O562   2.437       .  S
Zr559       O563   2.438       .  S
Zr559       O564   2.430       .  S
O560        C565   1.285       .  A
O561        H578   0.990       .  S
O561        H593   0.990       .  S
O562        H579   0.990       .  S
O563        H583   0.990       .  S
O563        H592   0.990       .  S
O564        C565   1.284       .  A
C565       C3257   1.494       .  S
O566        H585   0.990       .  S
O566        H589   0.990       .  S
O567        H581   0.990       .  S
O567        H588   0.990       .  S
O568        C572   1.288       .  A
O569        C572   1.284       .  A
O570        H580   0.990       .  S
O571        H584   0.990       .  S
C572       C3724   1.489       .  S
Zr595       O596   2.443       .  S
Zr595       O597   2.447       .  S
Zr595       O598   2.429       .  S
Zr595       O601   2.434       .  S
Zr595       O603   2.379       .  S
Zr595       O604   2.383   1_545  S
Zr595       O605   2.417       .  S
Zr595       O606   2.401       .  S
O596        H652   0.990       .  S
O596        H660   0.990       .  S
O597        C617   1.285       .  A
O598        C619   1.283       .  A
O599       Zr609   2.421       .  S
O599        C618   1.282   1_565  A
O600       Zr608   2.446       .  S
O600        C619   1.286       .  A
O601        C618   1.283       .  A
O602       Zr610   2.409       .  S
O602        C617   1.279   1_565  A
O603       Zr608   2.394       .  S
O603       Zr610   2.383   1_545  S
O604       Zr609   2.388       .  S
O604       Zr610   2.383       .  S
O604        H639   0.966       .  S
O605       Zr608   2.395       .  S
O605       Zr625   2.400       .  S
O605        H642   0.965       .  S
O606       Zr609   2.387   1_545  S
O606       Zr625   2.399       .  S
Zr607       O632   2.445       .  S
Zr607       O626   2.440       .  S
Zr607       O634   2.453       .  S
Zr607       O622   2.432       .  S
Zr607       O613   2.403       .  S
Zr607       O614   2.411       .  S
Zr607       O615   2.385   1_565  S
Zr607       O616   2.377       .  S
Zr608       O627   2.436       .  S
Zr608       O620   2.435       .  S
Zr608       O621   2.425       .  S
Zr608       O614   2.401   1_545  S
Zr608       O615   2.393       .  S
Zr609       O611   2.435       .  S
Zr609       O633   2.438       .  S
Zr609       O635   2.418       .  S
Zr609       O613   2.383       .  S
Zr609       O616   2.395       .  S
Zr610       O636   2.436       .  S
Zr610       O637   2.435       .  S
Zr610       O612   2.437       .  S
Zr610       O613   2.396       .  S
Zr610       O614   2.380       .  S
O611        H648   0.990       .  S
O612        H643   0.990       .  S
O612        H657   0.990   1_565  S
O614        H640   0.965       .  S
O615       Zr625   2.370       .  S
O616       Zr625   2.372   1_565  S
O616        H641   0.966       .  S
C617       C3164   1.489       .  S
C618       C3184   1.473       .  S
C619       C3284   1.489       .  S
O620        H656   0.990       .  S
O621        C623   1.285       .  A
O622        C623   1.285   1_565  A
C623       C3197   1.475   1_554  S
O624       Zr625   2.438       .  S
O624        H653   0.990       .  S
Zr625       O628   2.437       .  S
Zr625       O629   2.439       .  S
Zr625       O630   2.448       .  S
O626        C631   1.286   1_564  A
O627        H644   0.990       .  S
O627        H659   0.990       .  S
O628        H645   0.990       .  S
O629        H649   0.990       .  S
O629        H658   0.990       .  S
O630        C631   1.287   1_554  A
C631       C3217   1.507       .  S
O632        H651   0.990       .  S
O632        H655   0.990       .  S
O633        H647   0.990       .  S
O633        H654   0.990       .  S
O634        C638   1.288       .  A
O635        C638   1.282       .  A
O636        H646   0.990       .  S
O637        H650   0.990       .  S
C638       C3644   1.495       .  S
Zr661       O662   2.442       .  S
Zr661       O663   2.456       .  S
Zr661       O664   2.437       .  S
Zr661       O667   2.418       .  S
Zr661       O669   2.371       .  S
Zr661       O670   2.387       .  S
Zr661       O671   2.411       .  S
Zr661       O672   2.406       .  S
O662        H718   0.990       .  S
O662        H726   0.991       .  S
O663        C683   1.287       .  A
O664        C685   1.283       .  A
O665       Zr675   2.411       .  S
O665        C684   1.281       .  A
O666       Zr674   2.441       .  S
O666        C685   1.285       .  A
O667        C684   1.281       .  A
O668       Zr676   2.406       .  S
O668        C683   1.278       .  A
O669       Zr674   2.387       .  S
O669       Zr676   2.385       .  S
O670       Zr675   2.397       .  S
O670       Zr676   2.379       .  S
O670        H705   0.966       .  S
O671       Zr674   2.391       .  S
O671       Zr691   2.402       .  S
O671        H708   0.965       .  S
O672       Zr675   2.387       .  S
O672       Zr691   2.393       .  S
Zr673       O698   2.444       .  S
Zr673       O692   2.435       .  S
Zr673       O700   2.445       .  S
Zr673       O688   2.437       .  S
Zr673       O679   2.402       .  S
Zr673       O680   2.407       .  S
Zr673       O681   2.384       .  S
Zr673       O682   2.378       .  S
Zr674       O693   2.436       .  S
Zr674       O686   2.434       .  S
Zr674       O687   2.403       .  S
Zr674       O680   2.403       .  S
Zr674       O681   2.390       .  S
Zr675       O677   2.436       .  S
Zr675       O699   2.437       .  S
Zr675       O701   2.423       .  S
Zr675       O679   2.386       .  S
Zr675       O682   2.388       .  S
Zr676       O702   2.436       .  S
Zr676       O703   2.436       .  S
Zr676       O678   2.437       .  S
Zr676       O679   2.395       .  S
Zr676       O680   2.387       .  S
O677        H714   0.990       .  S
O678        H709   0.990       .  S
O678        H723   0.990       .  S
O680        H706   0.966       .  S
O681       Zr691   2.369       .  S
O682       Zr691   2.370       .  S
O682        H707   0.966       .  S
C683       C3097   1.487       .  S
C684       C3357   1.463       .  S
C685       C3144   1.493       .  S
O686        H722   0.990       .  S
O687        C689   1.281       .  A
O688        C689   1.286       .  A
C689       C3124   1.469       .  S
O690       Zr691   2.438       .  S
O690        H719   0.991       .  S
Zr691       O694   2.436       .  S
Zr691       O695   2.440       .  S
Zr691       O696   2.438       .  S
O692        C697   1.286       .  A
O693        H710   0.990       .  S
O693        H725   0.990       .  S
O694        H711   0.990       .  S
O695        H715   0.990       .  S
O695        H724   0.990       .  S
O696        C697   1.285       .  A
C697       C3264   1.500       .  S
O698        H717   0.990       .  S
O698        H721   0.990       .  S
O699        H713   0.990       .  S
O699        H720   0.990       .  S
O700        C704   1.287       .  A
O701        C704   1.284       .  A
O702        H712   0.990       .  S
O703        H716   0.990       .  S
C704       C3924   1.484       .  S
Zr727       O728   2.438       .  S
Zr727       O729   2.464       .  S
Zr727       O730   2.454       .  S
Zr727       O733   2.441       .  S
Zr727       O735   2.373       .  S
Zr727       O736   2.387   1_545  S
Zr727       O737   2.411       .  S
Zr727       O738   2.408       .  S
O728        H784   0.990       .  S
O728        H792   0.990       .  S
O729        C749   1.290       .  A
O730        C751   1.287       .  A
O731       Zr741   2.411       .  S
O731        C750   1.281   1_565  A
O732       Zr740   2.429       .  S
O732        C751   1.284       .  A
O733        C750   1.286       .  A
O734       Zr742   2.408       .  S
O734        C749   1.279   1_565  A
O735       Zr740   2.389       .  S
O735       Zr742   2.382   1_545  S
O736       Zr741   2.393       .  S
O736       Zr742   2.377       .  S
O736        H771   0.966       .  S
O737       Zr740   2.395       .  S
O737       Zr757   2.400       .  S
O737        H774   0.965       .  S
O738       Zr741   2.388   1_545  S
O738       Zr757   2.397       .  S
Zr739       O764   2.443       .  S
Zr739       O758   2.446       .  S
Zr739       O766   2.447       .  S
Zr739       O754   2.446       .  S
Zr739       O745   2.405       .  S
Zr739       O746   2.408       .  S
Zr739       O747   2.382   1_565  S
Zr739       O748   2.383       .  S
Zr740       O759   2.435       .  S
Zr740       O752   2.435       .  S
Zr740       O753   2.409       .  S
Zr740       O746   2.401   1_545  S
Zr740       O747   2.391       .  S
Zr741       O743   2.435       .  S
Zr741       O765   2.438       .  S
Zr741       O767   2.416       .  S
Zr741       O745   2.381       .  S
Zr741       O748   2.391       .  S
Zr742       O768   2.437       .  S
Zr742       O769   2.436       .  S
Zr742       O744   2.436       .  S
Zr742       O745   2.394       .  S
Zr742       O746   2.388       .  S
O743        H780   0.990       .  S
O744        H775   0.990       .  S
O744        H789   0.990   1_565  S
O746        H772   0.965       .  S
O747       Zr757   2.372       .  S
O748       Zr757   2.368   1_565  S
O748        H773   0.966       .  S
C749       C3037   1.497       .  S
C750       C3077   1.490       .  S
C751       C3137   1.499       .  S
O752        H788   0.990       .  S
O753        C755   1.281       .  A
O754        C755   1.288   1_565  A
C755       C3057   1.488       .  S
O756       Zr757   2.439       .  S
O756        H785   0.991       .  S
Zr757       O760   2.436       .  S
Zr757       O761   2.439       .  S
Zr757       O762   2.450       .  S
O758        C763   1.288   1_565  A
O759        H776   0.990       .  S
O759        H791   0.990       .  S
O760        H777   0.990       .  S
O761        H781   0.990       .  S
O761        H790   0.990       .  S
O762        C763   1.288       .  A
C763       C3224   1.501       .  S
O764        H783   0.990       .  S
O764        H787   0.990       .  S
O765        H779   0.990       .  S
O765        H786   0.990       .  S
O766        C770   1.287       .  A
O767        C770   1.282       .  A
O768        H778   0.990       .  S
O769        H782   0.990       .  S
C770       C3824   1.481       .  S
Zr793       O794   2.441       .  S
Zr793       O795   2.434       .  S
Zr793       O796   2.453       .  S
Zr793       O799   2.421       .  S
Zr793       O801   2.375       .  S
Zr793       O802   2.390   1_545  S
Zr793       O803   2.402       .  S
Zr793       O804   2.405       .  S
O794        H850   0.991       .  S
O794        H858   0.990       .  S
O795        C815   1.284       .  A
O796        C817   1.286       .  A
O797       Zr807   2.419       .  S
O797        C816   1.282   1_565  A
O798       Zr806   2.414       .  S
O798        C817   1.282       .  A
O799        C816   1.282       .  A
O800       Zr808   2.435       .  S
O800        C815   1.284   1_565  A
O801       Zr806   2.388       .  S
O801       Zr808   2.377   1_545  S
O802       Zr807   2.397       .  S
O802       Zr808   2.370       .  S
O802        H837   0.966       .  S
O803       Zr806   2.392       .  S
O803       Zr823   2.396       .  S
O803        H840   0.966       .  S
O804       Zr807   2.397   1_545  S
O804       Zr823   2.391       .  S
Zr805       O830   2.442       .  S
Zr805       O824   2.464       .  S
Zr805       O832   2.425       .  S
Zr805       O820   2.435       .  S
Zr805       O811   2.405       .  S
Zr805       O812   2.417       .  S
Zr805       O813   2.375   1_565  S
Zr805       O814   2.379       .  S
Zr806       O825   2.437       .  S
Zr806       O818   2.435       .  S
Zr806       O819   2.404       .  S
Zr806       O812   2.396   1_545  S
Zr806       O813   2.395       .  S
Zr807       O809   2.435       .  S
Zr807       O831   2.439       .  S
Zr807       O833   2.444       .  S
Zr807       O811   2.380       .  S
Zr807       O814   2.395       .  S
Zr808       O834   2.435       .  S
Zr808       O835   2.435       .  S
Zr808       O810   2.437       .  S
Zr808       O811   2.393       .  S
Zr808       O812   2.402       .  S
O809        H846   0.990       .  S
O810        H841   0.990       .  S
O810        H855   0.990   1_565  S
O812        H838   0.965       .  S
O813       Zr823   2.379       .  S
O814       Zr823   2.388   1_565  S
O814        H839   0.966       .  S
C815       C3004   1.489       .  S
C816       C3177   1.461       .  S
C817       C2964   1.490       .  S
O818        H854   0.990       .  S
O819        C821   1.279       .  A
O820        C821   1.283   1_565  A
C821       C2984   1.468       .  S
O822       Zr823   2.438       .  S
O822        H851   0.990       .  S
Zr823       O826   2.437       .  S
Zr823       O827   2.439       .  S
Zr823       O828   2.414       .  S
O824        C829   1.289   1_565  A
O825        H842   0.990       .  S
O825        H857   0.990       .  S
O826        H843   0.990       .  S
O827        H847   0.990       .  S
O827        H856   0.990       .  S
O828        C829   1.280       .  A
C829       C3044   1.495       .  S
O830        H849   0.990       .  S
O830        H853   0.990       .  S
O831        H845   0.990       .  S
O831        H852   0.990       .  S
O832        C836   1.283       .  A
O833        C836   1.286       .  A
O834        H844   0.990       .  S
O835        H848   0.990       .  S
C836       C3017   1.488       .  S
Zr859       O860   2.439       .  S
Zr859       O861   2.427       .  S
Zr859       O862   2.461       .  S
Zr859       O865   2.411       .  S
Zr859       O867   2.371       .  S
Zr859       O868   2.391       .  S
Zr859       O869   2.395       .  S
Zr859       O870   2.407       .  S
O860        H916   0.990       .  S
O860        H924   0.990       .  S
O861        C881   1.283       .  A
O862        C883   1.289       .  A
O863       Zr873   2.420       .  S
O863        C882   1.284       .  A
O864       Zr872   2.407       .  S
O864        C883   1.280       .  A
O865        C882   1.282       .  A
O866       Zr874   2.433       .  S
O866        C881   1.284       .  A
O867       Zr872   2.386       .  S
O867       Zr874   2.375       .  S
O868       Zr873   2.392       .  S
O868       Zr874   2.364       .  S
O868        H903   0.965       .  S
O869       Zr872   2.383       .  S
O869       Zr889   2.392       .  S
O869        H906   0.966       .  S
O870       Zr873   2.398       .  S
O870       Zr889   2.386       .  S
Zr871       O896   2.443       .  S
Zr871       O890   2.443       .  S
Zr871       O898   2.430       .  S
Zr871       O886   2.450       .  S
Zr871       O877   2.408       .  S
Zr871       O878   2.414       .  S
Zr871       O879   2.380       .  S
Zr871       O880   2.384       .  S
Zr872       O891   2.436       .  S
Zr872       O884   2.431       .  S
Zr872       O885   2.405       .  S
Zr872       O878   2.397       .  S
Zr872       O879   2.389       .  S
Zr873       O875   2.435       .  S
Zr873       O897   2.438       .  S
Zr873       O899   2.445       .  S
Zr873       O877   2.387       .  S
Zr873       O880   2.388       .  S
Zr874       O900   2.437       .  S
Zr874       O901   2.435       .  S
Zr874       O876   2.437       .  S
Zr874       O877   2.400       .  S
Zr874       O878   2.393       .  S
O875        H912   0.990       .  S
O876        H907   0.990       .  S
O876        H921   0.990       .  S
O878        H904   0.965       .  S
O879       Zr889   2.385       .  S
O880       Zr889   2.388       .  S
O880        H905   0.966       .  S
C881       C2937   1.484       .  S
C882       C3864   1.468       .  S
C883       C2897   1.487       .  S
O884        H920   0.990       .  S
O885        C887   1.279       .  A
O886        C887   1.285       .  A
C887       C2924   1.479       .  S
O888       Zr889   2.441       .  S
O888        H917   0.990       .  S
Zr889       O892   2.436       .  S
Zr889       O893   2.441       .  S
Zr889       O894   2.405       .  S
O890        C895   1.284       .  A
O891        H908   0.990       .  S
O891        H923   0.990       .  S
O892        H909   0.990       .  S
O893        H913   0.990       .  S
O893        H922   0.990       .  S
O894        C895   1.279       .  A
C895       C3664   1.475       .  S
O896        H915   0.990       .  S
O896        H919   0.990       .  S
O897        H911   0.990       .  S
O897        H918   0.990       .  S
O898        C902   1.283       .  A
O899        C902   1.286       .  A
O900        H910   0.990       .  S
O901        H914   0.990       .  S
C902       C3024   1.496       .  S
Zr925       O926   2.442   1_556  S
Zr925       O927   2.429   1_556  S
Zr925       O928   2.450   1_556  S
Zr925       O931   2.429   1_556  S
Zr925       O933   2.375       .  S
Zr925       O934   2.390   1_545  S
Zr925       O935   2.402       .  S
Zr925       O936   2.401       .  S
O926        H982   0.991       .  S
O926        H990   0.990       .  S
O927        C947   1.283       .  A
O928        C949   1.285   1_554  A
O929       Zr939   2.419   1_554  S
O929        C948   1.282   1_565  A
O930       Zr938   2.412       .  S
O930        C949   1.280       .  A
O931        C948   1.284       .  A
O932       Zr940   2.436   1_554  S
O932        C947   1.284   1_565  A
O933       Zr938   2.392       .  S
O933       Zr940   2.375   1_545  S
O934       Zr939   2.391       .  S
O934       Zr940   2.372       .  S
O934        H969   0.966   1_556  S
O935       Zr938   2.390       .  S
O935       Zr955   2.400       .  S
O935        H972   0.966       .  S
O936       Zr939   2.398   1_545  S
O936       Zr955   2.391       .  S
Zr937       O962   2.439       .  S
Zr937       O956   2.470       .  S
Zr937       O964   2.447       .  S
Zr937       O952   2.452   1_565  S
Zr937       O943   2.416       .  S
Zr937       O944   2.422   1_565  S
Zr937       O945   2.384   1_565  S
Zr937       O946   2.380       .  S
Zr938       O957   2.435       .  S
Zr938       O950   2.432       .  S
Zr938       O951   2.414       .  S
Zr938       O944   2.396       .  S
Zr938       O945   2.394       .  S
Zr939       O941   2.435       .  S
Zr939       O963   2.436       .  S
Zr939       O965   2.445       .  S
Zr939       O943   2.387       .  S
Zr939       O946   2.391       .  S
Zr940       O966   2.436   1_556  S
Zr940       O967   2.436       .  S
Zr940       O942   2.438       .  S
Zr940       O943   2.407       .  S
Zr940       O944   2.388   1_565  S
O941        H978   0.990       .  S
O942        H973   0.990       .  S
O942        H987   0.990   1_565  S
O944        H970   0.964   1_545  S
O945       Zr955   2.382       .  S
O946       Zr955   2.387   1_565  S
O946        H971   0.966       .  S
C947       C2997   1.495       .  S
C948       C2864   1.462       .  S
C949       C2824   1.484   1_556  S
O950        H986   0.990       .  S
O951        C953   1.282       .  A
O952        C953   1.287       .  A
C953       C3064   1.483       .  S
O954       Zr955   2.440       .  S
O954        H983   0.990       .  S
Zr955       O958   2.438       .  S
Zr955       O959   2.438       .  S
Zr955       O960   2.415       .  S
O956        C961   1.289   1_565  A
O957        H974   0.990       .  S
O957        H989   0.990       .  S
O958        H975   0.990       .  S
O959        H979   0.990       .  S
O959        H988   0.990       .  S
O960        C961   1.280       .  A
C961       C2837   1.501       .  S
O962        H981   0.990       .  S
O962        H985   0.990       .  S
O963        H977   0.990       .  S
O963        H984   0.990       .  S
O964        C968   1.286       .  A
O965        C968   1.287       .  A
O966        H976   0.990       .  S
O967        H980   0.990       .  S
C968       C2877   1.504       .  S
Zr991       O992   2.441       .  S
Zr991       O993   2.441       .  S
Zr991       O994   2.457       .  S
Zr991       O997   2.429       .  S
Zr991       O999   2.377       .  S
Zr991      O1000   2.389       .  S
Zr991      O1001   2.406       .  S
Zr991      O1002   2.403       .  S
O992       H1048   0.990       .  S
O992       H1056   0.990       .  S
O993       C1013   1.285       .  A
O994       C1015   1.286       .  A
O995      Zr1005   2.406       .  S
O995       C1014   1.280       .  A
O996      Zr1004   2.410       .  S
O996       C1015   1.281       .  A
O997       C1014   1.285       .  A
O998      Zr1006   2.423       .  S
O998       C1013   1.282       .  A
O999      Zr1004   2.389       .  S
O999      Zr1006   2.378       .  S
O1000     Zr1005   2.397       .  S
O1000     Zr1006   2.372       .  S
O1000      H1035   0.966       .  S
O1001     Zr1004   2.387       .  S
O1001     Zr1021   2.402       .  S
O1001      H1038   0.966       .  S
O1002     Zr1005   2.393       .  S
O1002     Zr1021   2.386       .  S
Zr1003     O1028   2.441       .  S
Zr1003     O1022   2.447       .  S
Zr1003     O1030   2.450       .  S
Zr1003     O1018   2.436       .  S
Zr1003     O1009   2.403       .  S
Zr1003     O1010   2.414       .  S
Zr1003     O1011   2.386       .  S
Zr1003     O1012   2.379       .  S
Zr1004     O1023   2.436       .  S
Zr1004     O1016   2.433       .  S
Zr1004     O1017   2.404       .  S
Zr1004     O1010   2.396       .  S
Zr1004     O1011   2.389       .  S
Zr1005     O1007   2.435       .  S
Zr1005     O1029   2.438       .  S
Zr1005     O1031   2.432       .  S
Zr1005     O1009   2.387       .  S
Zr1005     O1012   2.388       .  S
Zr1006     O1032   2.435       .  S
Zr1006     O1033   2.435       .  S
Zr1006     O1008   2.436       .  S
Zr1006     O1009   2.397       .  S
Zr1006     O1010   2.390       .  S
O1007      H1044   0.990       .  S
O1008      H1039   0.990       .  S
O1008      H1053   0.990       .  S
O1010      H1036   0.965       .  S
O1011     Zr1021   2.379       .  S
O1012     Zr1021   2.385       .  S
O1012      H1037   0.966       .  S
C1013      C2944   1.483       .  S
C1014      C2797   1.477       .  S
C1015      C2757   1.489       .  S
O1016      H1052   0.989       .  S
O1017      C1019   1.279       .  A
O1018      C1019   1.285       .  A
C1019      C3684   1.480       .  S
O1020     Zr1021   2.439       .  S
O1020      H1049   0.990       .  S
Zr1021     O1024   2.437       .  S
Zr1021     O1025   2.440       .  S
Zr1021     O1026   2.417       .  S
O1022      C1027   1.286       .  A
O1023      H1040   0.990       .  S
O1023      H1055   0.990       .  S
O1024      H1041   0.990       .  S
O1025      H1045   0.990       .  S
O1025      H1054   0.990       .  S
O1026      C1027   1.282       .  A
C1027      C2777   1.487       .  S
O1028      H1047   0.990       .  S
O1028      H1051   0.990       .  S
O1029      H1043   0.990       .  S
O1029      H1050   0.990       .  S
O1030      C1034   1.286       .  A
O1031      C1034   1.284       .  A
O1032      H1042   0.990       .  S
O1033      H1046   0.990       .  S
C1034      C2884   1.492       .  S
Zr1057     O1058   2.441       .  S
Zr1057     O1059   2.453       .  S
Zr1057     O1060   2.441       .  S
Zr1057     O1063   2.429       .  S
Zr1057     O1065   2.375       .  S
Zr1057     O1066   2.386       .  S
Zr1057     O1067   2.414       .  S
Zr1057     O1068   2.407       .  S
O1058      H1114   0.990       .  S
O1058      H1122   0.990       .  S
O1059      C1079   1.286       .  A
O1060      C1081   1.284       .  A
O1061     Zr1071   2.423       .  S
O1061      C1080   1.283       .  A
O1062     Zr1070   2.431       .  S
O1062      C1081   1.284       .  A
O1063      C1080   1.283       .  A
O1064     Zr1072   2.402       .  S
O1064      C1079   1.278       .  A
O1065     Zr1070   2.394       .  S
O1065     Zr1072   2.383       .  S
O1066     Zr1071   2.392       .  S
O1066     Zr1072   2.381       .  S
O1066      H1101   0.966       .  S
O1067     Zr1070   2.392       .  S
O1067     Zr1087   2.403       .  S
O1067      H1104   0.965       .  S
O1068     Zr1071   2.386       .  S
O1068     Zr1087   2.392       .  S
Zr1069     O1094   2.440       .  S
Zr1069     O1088   2.433       .  S
Zr1069     O1096   2.452       .  S
Zr1069     O1084   2.433       .  S
Zr1069     O1075   2.404       .  S
Zr1069     O1076   2.408       .  S
Zr1069     O1077   2.386       .  S
Zr1069     O1078   2.382       .  S
Zr1070     O1089   2.438       .  S
Zr1070     O1082   2.435       .  S
Zr1070     O1083   2.413       .  S
Zr1070     O1076   2.403       .  S
Zr1070     O1077   2.393       .  S
Zr1071     O1073   2.436       .  S
Zr1071     O1095   2.436       .  S
Zr1071     O1097   2.419       .  S
Zr1071     O1075   2.389       .  S
Zr1071     O1078   2.396       .  S
Zr1072     O1098   2.438       .  S
Zr1072     O1099   2.435       .  S
Zr1072     O1074   2.437       .  S
Zr1072     O1075   2.398       .  S
Zr1072     O1076   2.379       .  S
O1073      H1110   0.990       .  S
O1074      H1105   0.990       .  S
O1074      H1119   0.990       .  S
O1076      H1102   0.965       .  S
O1077     Zr1087   2.374       .  S
O1078     Zr1087   2.377       .  S
O1078      H1103   0.966       .  S
C1079      C2784   1.487       .  S
C1080      C2697   1.476       .  S
C1081      C2737   1.497       .  S
O1082      H1118   0.990       .  S
O1083      C1085   1.282       .  A
O1084      C1085   1.285       .  A
C1085      C2917   1.475       .  S
O1086     Zr1087   2.438       .  S
O1086      H1115   0.990       .  S
Zr1087     O1090   2.438       .  S
Zr1087     O1091   2.440       .  S
Zr1087     O1092   2.436       .  S
O1088      C1093   1.284       .  A
O1089      H1106   0.990       .  S
O1089      H1121   0.990       .  S
O1090      H1107   0.990       .  S
O1091      H1111   0.990       .  S
O1091      H1120   0.990       .  S
O1092      C1093   1.284       .  A
C1093      C2717   1.491       .  S
O1094      H1113   0.990       .  S
O1094      H1117   0.990       .  S
O1095      H1109   0.990       .  S
O1095      H1116   0.990       .  S
O1096      C1100   1.286       .  A
O1097      C1100   1.282       .  A
O1098      H1108   0.990       .  S
O1099      H1112   0.990       .  S
C1100      C2677   1.488       .  S
Zr1123     O1124   2.438       .  S
Zr1123     O1125   2.450       .  S
Zr1123     O1126   2.440       .  S
Zr1123     O1129   2.431       .  S
Zr1123     O1131   2.374       .  S
Zr1123     O1132   2.384       .  S
Zr1123     O1133   2.409       .  S
Zr1123     O1134   2.406       .  S
O1124      H1180   0.990       .  S
O1124      H1188   0.990       .  S
O1125      C1145   1.286       .  A
O1126      C1147   1.284       .  A
O1127     Zr1137   2.413       .  S
O1127      C1146   1.281       .  A
O1128     Zr1136   2.435       .  S
O1128      C1147   1.284       .  A
O1129      C1146   1.284       .  A
O1130     Zr1138   2.414       .  S
O1130      C1145   1.280       .  A
O1131     Zr1136   2.389       .  S
O1131     Zr1138   2.383       .  S
O1132     Zr1137   2.392       .  S
O1132     Zr1138   2.379       .  S
O1132      H1167   0.967       .  S
O1133     Zr1136   2.388       .  S
O1133     Zr1153   2.406       .  S
O1133      H1170   0.965       .  S
O1134     Zr1137   2.387       .  S
O1134     Zr1153   2.397       .  S
Zr1135     O1160   2.442       .  S
Zr1135     O1154   2.441   1_554  S
Zr1135     O1162   2.456       .  S
Zr1135     O1150   2.439       .  S
Zr1135     O1141   2.401       .  S
Zr1135     O1142   2.412       .  S
Zr1135     O1143   2.385       .  S
Zr1135     O1144   2.380       .  S
Zr1136     O1155   2.436       .  S
Zr1136     O1148   2.436       .  S
Zr1136     O1149   2.398       .  S
Zr1136     O1142   2.403       .  S
Zr1136     O1143   2.389       .  S
Zr1137     O1139   2.435       .  S
Zr1137     O1161   2.436       .  S
Zr1137     O1163   2.423       .  S
Zr1137     O1141   2.387       .  S
Zr1137     O1144   2.389       .  S
Zr1138     O1164   2.435       .  S
Zr1138     O1165   2.436       .  S
Zr1138     O1140   2.438       .  S
Zr1138     O1141   2.397       .  S
Zr1138     O1142   2.391       .  S
O1139      H1176   0.990       .  S
O1140      H1171   0.990       .  S
O1140      H1185   0.990       .  S
O1142      H1168   0.966       .  S
O1143     Zr1153   2.368       .  S
O1144     Zr1153   2.372       .  S
O1144      H1169   0.966       .  S
C1145      C2624   1.486       .  S
C1146      C3584   1.483       .  S
C1147      C2744   1.497       .  S
O1148      H1184   0.990       .  S
O1149      C1151   1.280       .  A
O1150      C1151   1.286       .  A
C1151      C2637   1.473   1_554  S
O1152     Zr1153   2.438       .  S
O1152      H1181   0.990       .  S
Zr1153     O1156   2.438       .  S
Zr1153     O1157   2.438       .  S
Zr1153     O1158   2.444       .  S
O1154      C1159   1.286       .  A
O1155      H1172   0.990       .  S
O1155      H1187   0.990       .  S
O1156      H1173   0.990       .  S
O1157      H1177   0.990       .  S
O1157      H1186   0.990       .  S
O1158      C1159   1.286   1_554  A
C1159      C2664   1.487       .  S
O1160      H1179   0.990       .  S
O1160      H1183   0.990       .  S
O1161      H1175   0.990       .  S
O1161      H1182   0.990       .  S
O1162      C1166   1.289       .  A
O1163      C1166   1.283       .  A
O1164      H1174   0.990       .  S
O1165      H1178   0.990       .  S
C1166      C2597   1.490       .  S
Zr1189     O1190   2.440       .  S
Zr1189     O1191   2.453       .  S
Zr1189     O1192   2.445       .  S
Zr1189     O1195   2.434       .  S
Zr1189     O1197   2.374       .  S
Zr1189     O1198   2.383       .  S
Zr1189     O1199   2.410       .  S
Zr1189     O1200   2.408       .  S
O1190      H1246   0.990       .  S
O1190      H1254   0.990       .  S
O1191      C1211   1.287       .  A
O1192      C1213   1.285       .  A
O1193     Zr1203   2.403       .  S
O1193      C1212   1.280       .  A
O1194     Zr1202   2.430       .  S
O1194      C1213   1.283       .  A
O1195      C1212   1.285       .  A
O1196     Zr1204   2.416   1_455  S
O1196      C1211   1.281   1_455  A
O1197     Zr1202   2.386       .  S
O1197     Zr1204   2.383       .  S
O1198     Zr1203   2.395       .  S
O1198     Zr1204   2.378       .  S
O1198      H1233   0.966       .  S
O1199     Zr1202   2.391       .  S
O1199     Zr1219   2.400       .  S
O1199      H1236   0.965       .  S
O1200     Zr1203   2.389       .  S
O1200     Zr1219   2.401       .  S
Zr1201     O1226   2.441       .  S
Zr1201     O1220   2.424       .  S
Zr1201     O1228   2.452       .  S
Zr1201     O1216   2.425       .  S
Zr1201     O1207   2.394       .  S
Zr1201     O1208   2.407       .  S
Zr1201     O1209   2.383       .  S
Zr1201     O1210   2.376       .  S
Zr1202     O1221   2.438       .  S
Zr1202     O1214   2.435   1_655  S
Zr1202     O1215   2.394   1_655  S
Zr1202     O1208   2.400       .  S
Zr1202     O1209   2.388       .  S
Zr1203     O1205   2.435       .  S
Zr1203     O1227   2.434       .  S
Zr1203     O1229   2.421       .  S
Zr1203     O1207   2.384       .  S
Zr1203     O1210   2.380       .  S
Zr1204     O1230   2.435       .  S
Zr1204     O1231   2.435   1_655  S
Zr1204     O1206   2.437   1_655  S
Zr1204     O1207   2.394       .  S
Zr1204     O1208   2.388       .  S
O1205      H1242   0.990       .  S
O1206      H1237   0.990       .  S
O1206      H1251   0.990       .  S
O1208      H1234   0.966   1_655  S
O1209     Zr1219   2.363       .  S
O1210     Zr1219   2.371       .  S
O1210      H1235   0.966       .  S
C1211      C3557   1.486   1_655  S
C1212      C2557   1.486       .  S
C1213      C2584   1.492       .  S
O1214      H1250   0.990       .  S
O1215      C1217   1.279       .  A
O1216      C1217   1.284   1_655  A
C1217      C3397   1.470       .  S
O1218     Zr1219   2.438       .  S
O1218      H1247   0.991       .  S
Zr1219     O1222   2.437       .  S
Zr1219     O1223   2.438       .  S
Zr1219     O1224   2.445       .  S
O1220      C1225   1.283       .  A
O1221      H1238   0.990   1_655  S
O1221      H1253   0.990       .  S
O1222      H1239   0.990       .  S
O1223      H1243   0.990       .  S
O1223      H1252   0.990       .  S
O1224      C1225   1.287       .  A
C1225      C2657   1.495       .  S
O1226      H1245   0.990       .  S
O1226      H1249   0.990   1_655  S
O1227      H1241   0.990       .  S
O1227      H1248   0.990       .  S
O1228      C1232   1.289       .  A
O1229      C1232   1.283       .  A
O1230      H1240   0.990       .  S
O1231      H1244   0.990       .  S
C1232      C2537   1.492       .  S
Zr1255     O1256   2.441       .  S
Zr1255     O1257   2.457       .  S
Zr1255     O1258   2.445       .  S
Zr1255     O1261   2.434       .  S
Zr1255     O1263   2.375       .  S
Zr1255     O1264   2.387       .  S
Zr1255     O1265   2.416       .  S
Zr1255     O1266   2.405       .  S
O1256      H1312   0.990       .  S
O1256      H1320   0.990       .  S
O1257      C1277   1.287       .  A
O1258      C1279   1.285       .  A
O1259     Zr1269   2.406       .  S
O1259      C1278   1.280       .  A
O1260     Zr1268   2.431       .  S
O1260      C1279   1.283       .  A
O1261      C1278   1.284       .  A
O1262     Zr1270   2.409       .  S
O1262      C1277   1.280       .  A
O1263     Zr1268   2.389       .  S
O1263     Zr1270   2.384       .  S
O1264     Zr1269   2.394       .  S
O1264     Zr1270   2.380       .  S
O1264      H1299   0.967       .  S
O1265     Zr1268   2.398       .  S
O1265     Zr1285   2.401       .  S
O1265      H1302   0.965       .  S
O1266     Zr1269   2.389       .  S
O1266     Zr1285   2.398       .  S
Zr1267     O1292   2.442       .  S
Zr1267     O1286   2.432       .  S
Zr1267     O1294   2.456       .  S
Zr1267     O1282   2.436       .  S
Zr1267     O1273   2.403       .  S
Zr1267     O1274   2.405       .  S
Zr1267     O1275   2.384       .  S
Zr1267     O1276   2.377       .  S
Zr1268     O1287   2.437       .  S
Zr1268     O1280   2.435   1_655  S
Zr1268     O1281   2.410   1_655  S
Zr1268     O1274   2.397       .  S
Zr1268     O1275   2.392       .  S
Zr1269     O1271   2.435       .  S
Zr1269     O1293   2.435       .  S
Zr1269     O1295   2.414       .  S
Zr1269     O1273   2.386       .  S
Zr1269     O1276   2.384       .  S
Zr1270     O1296   2.434       .  S
Zr1270     O1297   2.435   1_655  S
Zr1270     O1272   2.437   1_655  S
Zr1270     O1273   2.394       .  S
Zr1270     O1274   2.383       .  S
O1271      H1308   0.990       .  S
O1272      H1303   0.990       .  S
O1272      H1317   0.990       .  S
O1274      H1300   0.966   1_655  S
O1275     Zr1285   2.369       .  S
O1276     Zr1285   2.367       .  S
O1276      H1301   0.966       .  S
C1277      C2497   1.489   1_655  S
C1278      C2804   1.477       .  S
C1279      C2577   1.495       .  S
O1280      H1316   0.990       .  S
O1281      C1283   1.282       .  A
O1282      C1283   1.286   1_655  A
C1283      C2517   1.476       .  S
O1284     Zr1285   2.438       .  S
O1284      H1313   0.991       .  S
Zr1285     O1288   2.437       .  S
Zr1285     O1289   2.440       .  S
Zr1285     O1290   2.437       .  S
O1286      C1291   1.285       .  A
O1287      H1304   0.990   1_655  S
O1287      H1319   0.990       .  S
O1288      H1305   0.990       .  S
O1289      H1309   0.990       .  S
O1289      H1318   0.990       .  S
O1290      C1291   1.285       .  A
C1291      C2724   1.498       .  S
O1292      H1311   0.990       .  S
O1292      H1315   0.990   1_655  S
O1293      H1307   0.990       .  S
O1293      H1314   0.990       .  S
O1294      C1298   1.289       .  A
O1295      C1298   1.282       .  A
O1296      H1306   0.990       .  S
O1297      H1310   0.990       .  S
C1298      C2477   1.493       .  S
Zr1321     O1322   2.440       .  S
Zr1321     O1323   2.437       .  S
Zr1321     O1324   2.472       .  S
Zr1321     O1327   2.443       .  S
Zr1321     O1329   2.378       .  S
Zr1321     O1330   2.395       .  S
Zr1321     O1331   2.404       .  S
Zr1321     O1332   2.397       .  S
O1322      H1378   0.990       .  S
O1322      H1386   0.990       .  S
O1323      C1343   1.285       .  A
O1324      C1345   1.290       .  A
O1325     Zr1335   2.402       .  S
O1325      C1344   1.281       .  A
O1326     Zr1334   2.410       .  S
O1326      C1345   1.281       .  A
O1327      C1344   1.287       .  A
O1328     Zr1336   2.421       .  S
O1328      C1343   1.281       .  A
O1329     Zr1334   2.388       .  S
O1329     Zr1336   2.379       .  S
O1330     Zr1335   2.396       .  S
O1330     Zr1336   2.373       .  S
O1330      H1365   0.966       .  S
O1331     Zr1334   2.393       .  S
O1331     Zr1351   2.398       .  S
O1331      H1368   0.966       .  S
O1332     Zr1335   2.392       .  S
O1332     Zr1351   2.378       .  S
Zr1333     O1358   2.439       .  S
Zr1333     O1352   2.467       .  S
Zr1333     O1360   2.437       .  S
Zr1333     O1348   2.448       .  S
Zr1333     O1339   2.407       .  S
Zr1333     O1340   2.419       .  S
Zr1333     O1341   2.381       .  S
Zr1333     O1342   2.379       .  S
Zr1334     O1353   2.435       .  S
Zr1334     O1346   2.435       .  S
Zr1334     O1347   2.406       .  S
Zr1334     O1340   2.394       .  S
Zr1334     O1341   2.396       .  S
Zr1335     O1337   2.435       .  S
Zr1335     O1359   2.440       .  S
Zr1335     O1361   2.437       .  S
Zr1335     O1339   2.379       .  S
Zr1335     O1342   2.389       .  S
Zr1336     O1362   2.435       .  S
Zr1336     O1363   2.436       .  S
Zr1336     O1338   2.437       .  S
Zr1336     O1339   2.393       .  S
Zr1336     O1340   2.394       .  S
O1337      H1374   0.990       .  S
O1338      H1369   0.991       .  S
O1338      H1383   0.990       .  S
O1340      H1366   0.964       .  S
O1341     Zr1351   2.382       .  S
O1342     Zr1351   2.388       .  S
O1342      H1367   0.966       .  S
C1343      C2437   1.493       .  S
C1344      C2564   1.475       .  S
C1345      C2904   1.498       .  S
O1346      H1382   0.990       .  S
O1347      C1349   1.280       .  A
O1348      C1349   1.285       .  A
C1349      C3784   1.486       .  S
O1350     Zr1351   2.439       .  S
O1350      H1379   0.990       .  S
Zr1351     O1354   2.436       .  S
Zr1351     O1355   2.440       .  S
Zr1351     O1356   2.408       .  S
O1352      C1357   1.289       .  A
O1353      H1370   0.990       .  S
O1353      H1385   0.990       .  S
O1354      H1371   0.990       .  S
O1355      H1375   0.990       .  S
O1355      H1384   0.990       .  S
O1356      C1357   1.279       .  A
C1357      C2617   1.495       .  S
O1358      H1377   0.990       .  S
O1358      H1381   0.990       .  S
O1359      H1373   0.990       .  S
O1359      H1380   0.990       .  S
O1360      C1364   1.285       .  A
O1361      C1364   1.285       .  A
O1362      H1372   0.990       .  S
O1363      H1376   0.990       .  S
C1364      C2457   1.496       .  S
Zr1387     O1388   2.439       .  S
Zr1387     O1389   2.442       .  S
Zr1387     O1390   2.467       .  S
Zr1387     O1393   2.437       .  S
Zr1387     O1395   2.376       .  S
Zr1387     O1396   2.392       .  S
Zr1387     O1397   2.404       .  S
Zr1387     O1398   2.406       .  S
O1388      H1444   0.990       .  S
O1388      H1452   0.990       .  S
O1389      C1409   1.286       .  A
O1390      C1411   1.289       .  A
O1391     Zr1401   2.426       .  S
O1391      C1410   1.285       .  A
O1392     Zr1400   2.404       .  S
O1392      C1411   1.280       .  A
O1393      C1410   1.286       .  A
O1394     Zr1402   2.430       .  S
O1394      C1409   1.284       .  A
O1395     Zr1400   2.391       .  S
O1395     Zr1402   2.378       .  S
O1396     Zr1401   2.398       .  S
O1396     Zr1402   2.376       .  S
O1396      H1431   0.966       .  S
O1397     Zr1400   2.393       .  S
O1397     Zr1417   2.396       .  S
O1397      H1434   0.966       .  S
O1398     Zr1401   2.397       .  S
O1398     Zr1417   2.388       .  S
Zr1399     O1424   2.440       .  S
Zr1399     O1418   2.446       .  S
Zr1399     O1426   2.433       .  S
Zr1399     O1414   2.441       .  S
Zr1399     O1405   2.406       .  S
Zr1399     O1406   2.408       .  S
Zr1399     O1407   2.377       .  S
Zr1399     O1408   2.385       .  S
Zr1400     O1419   2.436       .  S
Zr1400     O1412   2.434       .  S
Zr1400     O1413   2.405       .  S
Zr1400     O1406   2.392       .  S
Zr1400     O1407   2.388       .  S
Zr1401     O1403   2.436       .  S
Zr1401     O1425   2.437       .  S
Zr1401     O1427   2.450       .  S
Zr1401     O1405   2.386       .  S
Zr1401     O1408   2.390       .  S
Zr1402     O1428   2.437       .  S
Zr1402     O1429   2.435       .  S
Zr1402     O1404   2.435       .  S
Zr1402     O1405   2.392       .  S
Zr1402     O1406   2.393       .  S
O1403      H1440   0.990       .  S
O1404      H1435   0.990       .  S
O1404      H1449   0.990       .  S
O1406      H1432   0.965       .  S
O1407     Zr1417   2.379       .  S
O1408     Zr1417   2.385       .  S
O1408      H1433   0.966       .  S
C1409      C2417   1.496       .  S
C1410      C2404   1.490       .  S
C1411      C2957   1.489       .  S
O1412      H1448   0.990       .  S
O1413      C1415   1.280       .  A
O1414      C1415   1.285       .  A
C1415      C3117   1.478       .  S
O1416     Zr1417   2.438       .  S
O1416      H1445   0.990       .  S
Zr1417     O1420   2.437       .  S
Zr1417     O1421   2.440       .  S
Zr1417     O1422   2.409       .  S
O1418      C1423   1.286       .  A
O1419      H1436   0.990       .  S
O1419      H1451   0.990       .  S
O1420      H1437   0.990       .  S
O1421      H1441   0.990       .  S
O1421      H1450   0.990       .  S
O1422      C1423   1.279       .  A
C1423      C2384   1.482       .  S
O1424      H1443   0.990       .  S
O1424      H1447   0.991       .  S
O1425      H1439   0.990       .  S
O1425      H1446   0.990       .  S
O1426      C1430   1.283       .  A
O1427      C1430   1.287       .  A
O1428      H1438   0.990       .  S
O1429      H1442   0.990       .  S
C1430      C2464   1.497       .  S
Zr1453     O1454   2.438       .  S
Zr1453     O1455   2.436       .  S
Zr1453     O1456   2.450       .  S
Zr1453     O1459   2.418       .  S
Zr1453     O1461   2.374       .  S
Zr1453     O1462   2.389       .  S
Zr1453     O1463   2.405       .  S
Zr1453     O1464   2.403       .  S
O1454      H1510   0.990       .  S
O1454      H1518   0.990       .  S
O1455      C1475   1.284       .  A
O1456      C1477   1.286       .  A
O1457     Zr1467   2.434       .  S
O1457      C1476   1.286       .  A
O1458     Zr1466   2.415       .  S
O1458      C1477   1.281       .  A
O1459      C1476   1.283       .  A
O1460     Zr1468   2.425       .  S
O1460      C1475   1.282       .  A
O1461     Zr1466   2.386       .  S
O1461     Zr1468   2.374       .  S
O1462     Zr1467   2.395       .  S
O1462     Zr1468   2.374       .  S
O1462      H1497   0.966       .  S
O1463     Zr1466   2.384       .  S
O1463     Zr1483   2.403       .  S
O1463      H1500   0.966       .  S
O1464     Zr1467   2.389       .  S
O1464     Zr1483   2.387       .  S
Zr1465     O1490   2.442       .  S
Zr1465     O1484   2.466       .  S
Zr1465     O1492   2.440       .  S
Zr1465     O1480   2.445       .  S
Zr1465     O1471   2.406       .  S
Zr1465     O1472   2.422       .  S
Zr1465     O1473   2.383       .  S
Zr1465     O1474   2.385       .  S
Zr1466     O1485   2.435       .  S
Zr1466     O1478   2.434       .  S
Zr1466     O1479   2.398       .  S
Zr1466     O1472   2.399       .  S
Zr1466     O1473   2.394       .  S
Zr1467     O1469   2.438       .  S
Zr1467     O1491   2.437       .  S
Zr1467     O1493   2.447       .  S
Zr1467     O1471   2.386       .  S
Zr1467     O1474   2.390       .  S
Zr1468     O1494   2.435       .  S
Zr1468     O1495   2.436       .  S
Zr1468     O1470   2.438       .  S
Zr1468     O1471   2.390       .  S
Zr1468     O1472   2.394       .  S
O1469      H1506   0.990       .  S
O1470      H1501   0.990       .  S
O1470      H1515   0.990       .  S
O1472      H1498   0.965       .  S
O1473     Zr1483   2.380       .  S
O1474     Zr1483   2.385       .  S
O1474      H1499   0.966       .  S
C1475      C2444   1.484       .  S
C1476      C3957   1.483       .  S
C1477      C2764   1.488       .  S
O1478      H1514   0.990       .  S
O1479      C1481   1.278       .  A
O1480      C1481   1.285       .  A
C1481      C2644   1.474       .  S
O1482     Zr1483   2.438       .  S
O1482      H1511   0.990       .  S
Zr1483     O1486   2.436       .  S
Zr1483     O1487   2.438       .  S
Zr1483     O1488   2.411       .  S
O1484      C1489   1.289       .  A
O1485      H1502   0.990       .  S
O1485      H1517   0.990       .  S
O1486      H1503   0.990       .  S
O1487      H1507   0.990       .  S
O1487      H1516   0.990       .  S
O1488      C1489   1.280       .  A
C1489      C3744   1.494       .  S
O1490      H1509   0.991       .  S
O1490      H1513   0.990       .  S
O1491      H1505   0.990       .  S
O1491      H1512   0.990       .  S
O1492      C1496   1.285       .  A
O1493      C1496   1.287       .  A
O1494      H1504   0.990       .  S
O1495      H1508   0.990       .  S
C1496      C2357   1.491       .  S
Zr1519     O1520   2.440   1_556  S
Zr1519     O1521   2.447   1_556  S
Zr1519     O1522   2.463   1_556  S
Zr1519     O1525   2.436   1_556  S
Zr1519     O1527   2.376       .  S
Zr1519     O1528   2.391       .  S
Zr1519     O1529   2.407       .  S
Zr1519     O1530   2.405       .  S
O1520      H1576   0.990       .  S
O1520      H1584   0.990       .  S
O1521      C1541   1.286       .  A
O1522      C1543   1.287   1_554  A
O1523     Zr1533   2.412       .  S
O1523      C1542   1.282   1_556  A
O1524     Zr1532   2.385       .  S
O1524      C1543   1.276       .  A
O1525      C1542   1.286       .  A
O1526     Zr1534   2.435   1_554  S
O1526      C1541   1.284       .  A
O1527     Zr1532   2.385       .  S
O1527     Zr1534   2.377       .  S
O1528     Zr1533   2.397       .  S
O1528     Zr1534   2.375       .  S
O1528      H1563   0.966   1_556  S
O1529     Zr1532   2.386       .  S
O1529     Zr1549   2.398       .  S
O1529      H1566   0.966       .  S
O1530     Zr1533   2.393       .  S
O1530     Zr1549   2.392       .  S
Zr1531     O1556   2.439       .  S
Zr1531     O1550   2.449       .  S
Zr1531     O1558   2.452       .  S
Zr1531     O1546   2.450       .  S
Zr1531     O1537   2.407       .  S
Zr1531     O1538   2.411       .  S
Zr1531     O1539   2.379       .  S
Zr1531     O1540   2.383       .  S
Zr1532     O1551   2.437       .  S
Zr1532     O1544   2.435       .  S
Zr1532     O1545   2.383       .  S
Zr1532     O1538   2.387       .  S
Zr1532     O1539   2.383       .  S
Zr1533     O1535   2.434       .  S
Zr1533     O1557   2.437       .  S
Zr1533     O1559   2.431       .  S
Zr1533     O1537   2.389       .  S
Zr1533     O1540   2.390       .  S
Zr1534     O1560   2.436   1_556  S
Zr1534     O1561   2.436       .  S
Zr1534     O1536   2.438       .  S
Zr1534     O1537   2.398       .  S
Zr1534     O1538   2.393       .  S
O1535      H1572   0.990       .  S
O1536      H1567   0.990   1_556  S
O1536      H1581   0.989       .  S
O1538      H1564   0.965       .  S
O1539     Zr1549   2.373       .  S
O1540     Zr1549   2.384       .  S
O1540      H1565   0.966       .  S
C1541      C2424   1.503       .  S
C1542      C3237   1.482       .  S
C1543      C2817   1.482   1_556  S
O1544      H1580   0.990       .  S
O1545      C1547   1.275       .  A
O1546      C1547   1.287       .  A
C1547      C2344   1.477       .  S
O1548     Zr1549   2.438       .  S
O1548      H1577   0.990       .  S
Zr1549     O1552   2.438       .  S
Zr1549     O1553   2.438       .  S
Zr1549     O1554   2.419       .  S
O1550      C1555   1.287       .  A
O1551      H1568   0.990       .  S
O1551      H1583   0.990       .  S
O1552      H1569   0.990       .  S
O1553      H1573   0.990       .  S
O1553      H1582   0.990       .  S
O1554      C1555   1.282       .  A
C1555      C3104   1.487       .  S
O1556      H1575   0.990       .  S
O1556      H1579   0.990       .  S
O1557      H1571   0.990       .  S
O1557      H1578   0.990       .  S
O1558      C1562   1.287       .  A
O1559      C1562   1.284       .  A
O1560      H1570   0.990       .  S
O1561      H1574   0.990       .  S
C1562      C2364   1.502       .  S
Zr1585     O1586   2.440       .  S
Zr1585     O1587   2.429       .  S
Zr1585     O1588   2.470       .  S
Zr1585     O1591   2.428       .  S
Zr1585     O1593   2.377       .  S
Zr1585     O1594   2.392   1_545  S
Zr1585     O1595   2.402       .  S
Zr1585     O1596   2.412       .  S
O1586      H1642   0.990       .  S
O1586      H1650   0.990       .  S
O1587      C1607   1.284       .  A
O1588      C1609   1.290       .  A
O1589     Zr1599   2.425       .  S
O1589      C1608   1.284   1_565  A
O1590     Zr1598   2.413       .  S
O1590      C1609   1.281       .  A
O1591      C1608   1.285       .  A
O1592     Zr1600   2.417       .  S
O1592      C1607   1.281   1_565  A
O1593     Zr1598   2.388       .  S
O1593     Zr1600   2.379   1_545  S
O1594     Zr1599   2.394       .  S
O1594     Zr1600   2.365       .  S
O1594      H1629   0.966       .  S
O1595     Zr1598   2.391       .  S
O1595     Zr1615   2.398       .  S
O1595      H1632   0.966       .  S
O1596     Zr1599   2.400   1_545  S
O1596     Zr1615   2.397       .  S
Zr1597     O1622   2.441       .  S
Zr1597     O1616   2.442   1_565  S
Zr1597     O1624   2.430       .  S
Zr1597     O1612   2.447   1_565  S
Zr1597     O1603   2.400       .  S
Zr1597     O1604   2.411   1_565  S
Zr1597     O1605   2.379   1_565  S
Zr1597     O1606   2.384   1_565  S
Zr1598     O1617   2.435       .  S
Zr1598     O1610   2.434       .  S
Zr1598     O1611   2.409       .  S
Zr1598     O1604   2.401       .  S
Zr1598     O1605   2.394       .  S
Zr1599     O1601   2.435       .  S
Zr1599     O1623   2.438       .  S
Zr1599     O1625   2.450       .  S
Zr1599     O1603   2.384       .  S
Zr1599     O1606   2.389   1_565  S
Zr1600     O1626   2.435       .  S
Zr1600     O1627   2.435       .  S
Zr1600     O1602   2.436       .  S
Zr1600     O1603   2.387       .  S
Zr1600     O1604   2.385   1_565  S
O1601      H1638   0.990       .  S
O1602      H1633   0.990       .  S
O1602      H1647   0.990   1_565  S
O1604      H1630   0.964   1_545  S
O1605     Zr1615   2.383       .  S
O1606     Zr1615   2.384       .  S
O1606      H1631   0.966   1_545  S
C1607      C2297   1.487       .  S
C1608      C2284   1.488       .  S
C1609      C3297   1.499       .  S
O1610      H1646   0.990       .  S
O1611      C1613   1.280       .  A
O1612      C1613   1.285       .  A
C1613      C3204   1.476       .  S
O1614     Zr1615   2.439       .  S
O1614      H1643   0.990       .  S
Zr1615     O1618   2.438       .  S
Zr1615     O1619   2.439       .  S
Zr1615     O1620   2.418       .  S
O1616      C1621   1.284       .  A
O1617      H1634   0.990       .  S
O1617      H1649   0.990       .  S
O1618      H1635   0.990       .  S
O1619      H1639   0.990       .  S
O1619      H1648   0.990       .  S
O1620      C1621   1.281       .  A
C1621      C2264   1.482       .  S
O1622      H1641   0.991       .  S
O1622      H1645   0.990       .  S
O1623      H1637   0.990       .  S
O1623      H1644   0.990       .  S
O1624      C1628   1.284       .  A
O1625      C1628   1.288       .  A
O1626      H1636   0.990       .  S
O1627      H1640   0.990       .  S
C1628      C2317   1.500       .  S
Zr1651     O1652   2.438   1_556  S
Zr1651     O1653   2.433   1_556  S
Zr1651     O1654   2.463   1_556  S
Zr1651     O1657   2.430   1_556  S
Zr1651     O1659   2.373       .  S
Zr1651     O1660   2.388       .  S
Zr1651     O1661   2.403       .  S
Zr1651     O1662   2.404       .  S
O1652      H1708   0.991       .  S
O1652      H1716   0.990       .  S
O1653      C1673   1.284       .  A
O1654      C1675   1.289   1_554  A
O1655     Zr1665   2.419   1_554  S
O1655      C1674   1.283       .  A
O1656     Zr1664   2.419       .  S
O1656      C1675   1.282       .  A
O1657      C1674   1.285       .  A
O1658     Zr1666   2.415   1_554  S
O1658      C1673   1.281       .  A
O1659     Zr1664   2.388       .  S
O1659     Zr1666   2.376       .  S
O1660     Zr1665   2.394       .  S
O1660     Zr1666   2.368       .  S
O1660      H1695   0.966   1_556  S
O1661     Zr1664   2.391       .  S
O1661     Zr1681   2.399       .  S
O1661      H1698   0.966       .  S
O1662     Zr1665   2.399       .  S
O1662     Zr1681   2.393       .  S
Zr1663     O1688   2.441       .  S
Zr1663     O1682   2.462       .  S
Zr1663     O1690   2.445       .  S
Zr1663     O1678   2.445       .  S
Zr1663     O1669   2.406       .  S
Zr1663     O1670   2.413       .  S
Zr1663     O1671   2.381       .  S
Zr1663     O1672   2.383       .  S
Zr1664     O1683   2.435       .  S
Zr1664     O1676   2.435       .  S
Zr1664     O1677   2.405       .  S
Zr1664     O1670   2.396       .  S
Zr1664     O1671   2.392       .  S
Zr1665     O1667   2.436       .  S
Zr1665     O1689   2.438       .  S
Zr1665     O1691   2.443       .  S
Zr1665     O1669   2.390       .  S
Zr1665     O1672   2.390       .  S
Zr1666     O1692   2.436   1_556  S
Zr1666     O1693   2.435       .  S
Zr1666     O1668   2.437       .  S
Zr1666     O1669   2.393       .  S
Zr1666     O1670   2.385       .  S
O1667      H1704   0.990       .  S
O1668      H1699   0.990   1_556  S
O1668      H1713   0.990       .  S
O1670      H1696   0.965       .  S
O1671     Zr1681   2.375       .  S
O1672     Zr1681   2.388       .  S
O1672      H1697   0.966       .  S
C1673      C2237   1.490       .  S
C1674      C2704   1.484       .  S
C1675      C3377   1.499   1_556  S
O1676      H1712   0.990       .  S
O1677      C1679   1.280       .  A
O1678      C1679   1.286       .  A
C1679      C3884   1.485       .  S
O1680     Zr1681   2.437       .  S
O1680      H1709   0.991       .  S
Zr1681     O1684   2.439       .  S
Zr1681     O1685   2.438       .  S
Zr1681     O1686   2.410       .  S
O1682      C1687   1.289       .  A
O1683      H1700   0.990       .  S
O1683      H1715   0.990       .  S
O1684      H1701   0.990       .  S
O1685      H1705   0.990       .  S
O1685      H1714   0.990       .  S
O1686      C1687   1.280       .  A
C1687      C2504   1.489       .  S
O1688      H1707   0.990       .  S
O1688      H1711   0.991       .  S
O1689      H1703   0.990       .  S
O1689      H1710   0.990   1_556  S
O1690      C1694   1.285       .  A
O1691      C1694   1.286       .  A
O1692      H1702   0.990       .  S
O1693      H1706   0.990       .  S
C1694      C2324   1.494       .  S
Zr1717     O1718   2.438       .  S
Zr1717     O1719   2.428       .  S
Zr1717     O1720   2.457       .  S
Zr1717     O1723   2.428       .  S
Zr1717     O1725   2.374       .  S
Zr1717     O1726   2.389   1_545  S
Zr1717     O1727   2.398       .  S
Zr1717     O1728   2.402       .  S
O1718      H1774   0.990       .  S
O1718      H1782   0.990       .  S
O1719      C1739   1.284       .  A
O1720      C1741   1.288       .  A
O1721     Zr1731   2.419       .  S
O1721      C1740   1.284   1_565  A
O1722     Zr1730   2.412       .  S
O1722      C1741   1.281       .  A
O1723      C1740   1.285       .  A
O1724     Zr1732   2.422       .  S
O1724      C1739   1.282   1_565  A
O1725     Zr1730   2.387       .  S
O1725     Zr1732   2.377   1_545  S
O1726     Zr1731   2.392       .  S
O1726     Zr1732   2.365       .  S
O1726      H1761   0.966       .  S
O1727     Zr1730   2.390       .  S
O1727     Zr1747   2.394       .  S
O1727      H1764   0.966       .  S
O1728     Zr1731   2.396   1_545  S
O1728     Zr1747   2.387       .  S
Zr1729     O1754   2.439       .  S
Zr1729     O1748   2.449       .  S
Zr1729     O1756   2.432       .  S
Zr1729     O1744   2.449       .  S
Zr1729     O1735   2.409       .  S
Zr1729     O1736   2.411       .  S
Zr1729     O1737   2.380   1_565  S
Zr1729     O1738   2.383       .  S
Zr1730     O1749   2.436       .  S
Zr1730     O1742   2.434       .  S
Zr1730     O1743   2.408       .  S
Zr1730     O1736   2.396   1_545  S
Zr1730     O1737   2.392       .  S
Zr1731     O1733   2.436       .  S
Zr1731     O1755   2.440       .  S
Zr1731     O1757   2.435       .  S
Zr1731     O1735   2.390       .  S
Zr1731     O1738   2.391       .  S
Zr1732     O1758   2.436       .  S
Zr1732     O1759   2.436       .  S
Zr1732     O1734   2.436       .  S
Zr1732     O1735   2.397       .  S
Zr1732     O1736   2.384       .  S
O1733      H1770   0.990       .  S
O1734      H1765   0.990       .  S
O1734      H1779   0.990   1_565  S
O1736      H1762   0.964       .  S
O1737     Zr1747   2.384       .  S
O1738     Zr1747   2.381   1_565  S
O1738      H1763   0.966       .  S
C1739      C2304   1.491       .  S
C1740      C3084   1.483       .  S
C1741      C3444   1.490       .  S
O1742      H1778   0.990       .  S
O1743      C1745   1.280       .  A
O1744      C1745   1.287   1_565  A
C1745      C2204   1.483       .  S
O1746     Zr1747   2.439       .  S
O1746      H1775   0.991       .  S
Zr1747     O1750   2.437       .  S
Zr1747     O1751   2.438       .  S
Zr1747     O1752   2.408       .  S
O1748      C1753   1.285   1_565  A
O1749      H1766   0.990       .  S
O1749      H1781   0.990       .  S
O1750      H1767   0.990       .  S
O1751      H1771   0.990       .  S
O1751      H1780   0.989       .  S
O1752      C1753   1.280       .  A
C1753      C3157   1.482       .  S
O1754      H1773   0.990       .  S
O1754      H1777   0.990       .  S
O1755      H1769   0.990       .  S
O1755      H1776   0.990       .  S
O1756      C1760   1.283       .  A
O1757      C1760   1.285       .  A
O1758      H1768   0.990       .  S
O1759      H1772   0.990       .  S
C1760      C2217   1.495       .  S
Zr1783     O1784   2.438       .  S
Zr1783     O1785   2.435       .  S
Zr1783     O1786   2.463       .  S
Zr1783     O1789   2.429       .  S
Zr1783     O1791   2.375       .  S
Zr1783     O1792   2.389       .  S
Zr1783     O1793   2.403       .  S
Zr1783     O1794   2.406       .  S
O1784      H1840   0.990       .  S
O1784      H1848   0.990       .  S
O1785      C1805   1.285       .  A
O1786      C1807   1.289       .  A
O1787     Zr1797   2.407       .  S
O1787      C1806   1.281       .  A
O1788     Zr1796   2.408       .  S
O1788      C1807   1.281       .  A
O1789      C1806   1.285       .  A
O1790     Zr1798   2.434       .  S
O1790      C1805   1.284       .  A
O1791     Zr1796   2.384       .  S
O1791     Zr1798   2.374       .  S
O1792     Zr1797   2.394       .  S
O1792     Zr1798   2.363       .  S
O1792      H1827   0.966       .  S
O1793     Zr1796   2.386       .  S
O1793     Zr1813   2.398       .  S
O1793      H1830   0.966       .  S
O1794     Zr1797   2.392       .  S
O1794     Zr1813   2.389       .  S
Zr1795     O1820   2.441       .  S
Zr1795     O1814   2.462       .  S
Zr1795     O1822   2.436       .  S
Zr1795     O1810   2.448       .  S
Zr1795     O1801   2.406       .  S
Zr1795     O1802   2.418       .  S
Zr1795     O1803   2.382       .  S
Zr1795     O1804   2.381       .  S
Zr1796     O1815   2.436       .  S
Zr1796     O1808   2.433       .  S
Zr1796     O1809   2.400       .  S
Zr1796     O1802   2.396       .  S
Zr1796     O1803   2.393       .  S
Zr1797     O1799   2.435       .  S
Zr1797     O1821   2.439       .  S
Zr1797     O1823   2.435       .  S
Zr1797     O1801   2.381       .  S
Zr1797     O1804   2.387       .  S
Zr1798     O1824   2.435       .  S
Zr1798     O1825   2.435       .  S
Zr1798     O1800   2.437       .  S
Zr1798     O1801   2.396       .  S
Zr1798     O1802   2.400       .  S
O1799      H1836   0.990       .  S
O1800      H1831   0.991       .  S
O1800      H1845   0.990       .  S
O1802      H1828   0.965       .  S
O1803     Zr1813   2.382       .  S
O1804     Zr1813   2.386       .  S
O1804      H1829   0.966       .  S
C1805      C2244   1.490       .  S
C1806      C3704   1.483       .  S
C1807      C3544   1.498       .  S
O1808      H1844   0.990       .  S
O1809      C1811   1.278       .  A
O1810      C1811   1.285       .  A
C1811      C2524   1.481       .  S
O1812     Zr1813   2.439       .  S
O1812      H1841   0.990       .  S
Zr1813     O1816   2.438       .  S
Zr1813     O1817   2.438       .  S
Zr1813     O1818   2.419       .  S
O1814      C1819   1.289       .  A
O1815      H1832   0.990       .  S
O1815      H1847   0.990       .  S
O1816      H1833   0.990       .  S
O1817      H1837   0.990       .  S
O1817      H1846   0.990       .  S
O1818      C1819   1.282       .  A
C1819      C3837   1.496       .  S
O1820      H1839   0.991       .  S
O1820      H1843   0.990       .  S
O1821      H1835   0.990       .  S
O1821      H1842   0.990       .  S
O1822      C1826   1.285       .  A
O1823      C1826   1.285       .  A
O1824      H1834   0.990       .  S
O1825      H1838   0.990       .  S
C1826      C2224   1.497       .  S
Zr1849     O1850   2.441       .  S
Zr1849     O1851   2.451       .  S
Zr1849     O1852   2.446       .  S
Zr1849     O1855   2.423       .  S
Zr1849     O1857   2.373       .  S
Zr1849     O1858   2.389       .  S
Zr1849     O1859   2.412       .  S
Zr1849     O1860   2.408       .  S
O1850      H1906   0.990       .  S
O1850      H1914   0.990       .  S
O1851      C1871   1.286       .  A
O1852      C1873   1.285       .  A
O1853     Zr1863   2.423       .  S
O1853      C1872   1.283       .  A
O1854     Zr1862   2.426       .  S
O1854      C1873   1.282       .  A
O1855      C1872   1.281       .  A
O1856     Zr1864   2.416       .  S
O1856      C1871   1.281       .  A
O1857     Zr1862   2.384       .  S
O1857     Zr1864   2.384       .  S
O1858     Zr1863   2.395       .  S
O1858     Zr1864   2.381       .  S
O1858      H1893   0.967       .  S
O1859     Zr1862   2.392       .  S
O1859     Zr1879   2.404       .  S
O1859      H1896   0.965       .  S
O1860     Zr1863   2.385       .  S
O1860     Zr1879   2.392       .  S
Zr1861     O1886   2.443       .  S
Zr1861     O1880   2.444       .  S
Zr1861     O1888   2.459       .  S
Zr1861     O1876   2.439       .  S
Zr1861     O1867   2.405       .  S
Zr1861     O1868   2.413       .  S
Zr1861     O1869   2.380       .  S
Zr1861     O1870   2.383       .  S
Zr1862     O1881   2.437       .  S
Zr1862     O1874   2.435       .  S
Zr1862     O1875   2.391       .  S
Zr1862     O1868   2.399       .  S
Zr1862     O1869   2.388       .  S
Zr1863     O1865   2.435       .  S
Zr1863     O1887   2.437       .  S
Zr1863     O1889   2.419       .  S
Zr1863     O1867   2.388       .  S
Zr1863     O1870   2.395       .  S
Zr1864     O1890   2.435       .  S
Zr1864     O1891   2.437       .  S
Zr1864     O1866   2.438       .  S
Zr1864     O1867   2.395       .  S
Zr1864     O1868   2.397       .  S
O1865      H1902   0.990       .  S
O1866      H1897   0.991       .  S
O1866      H1911   0.990       .  S
O1868      H1894   0.966       .  S
O1869     Zr1879   2.363       .  S
O1870     Zr1879   2.373       .  S
O1870      H1895   0.966       .  S
C1871      C2377   1.497       .  S
C1872      C3484   1.474       .  S
C1873      C2184   1.493       .  S
O1874      H1910   0.990       .  S
O1875      C1877   1.279       .  A
O1876      C1877   1.286       .  A
C1877      C2337   1.474       .  S
O1878     Zr1879   2.437       .  S
O1878      H1907   0.991       .  S
Zr1879     O1882   2.436       .  S
Zr1879     O1883   2.439       .  S
Zr1879     O1884   2.438       .  S
O1880      C1885   1.287       .  A
O1881      H1898   0.990       .  S
O1881      H1913   0.990       .  S
O1882      H1899   0.990       .  S
O1883      H1903   0.990       .  S
O1883      H1912   0.990       .  S
O1884      C1885   1.285       .  A
C1885      C2157   1.504       .  S
O1886      H1905   0.990       .  S
O1886      H1909   0.990       .  S
O1887      H1901   0.990       .  S
O1887      H1908   0.990       .  S
O1888      C1892   1.290       .  A
O1889      C1892   1.283       .  A
O1890      H1900   0.990       .  S
O1891      H1904   0.990       .  S
C1892      C2544   1.489       .  S
Zr1915     O1916   2.441       .  S
Zr1915     O1917   2.446       .  S
Zr1915     O1918   2.439       .  S
Zr1915     O1921   2.429       .  S
Zr1915     O1923   2.376       .  S
Zr1915     O1924   2.382   1_545  S
Zr1915     O1925   2.407       .  S
Zr1915     O1926   2.403       .  S
O1916      H1972   0.990       .  S
O1916      H1980   0.990       .  S
O1917      C1937   1.286       .  A
O1918      C1939   1.284       .  A
O1919     Zr1929   2.407       .  S
O1919      C1938   1.280   1_565  A
O1920     Zr1928   2.442       .  S
O1920      C1939   1.286       .  A
O1921      C1938   1.284       .  A
O1922     Zr1930   2.404       .  S
O1922      C1937   1.278   1_565  A
O1923     Zr1928   2.389       .  S
O1923     Zr1930   2.386   1_545  S
O1924     Zr1929   2.388       .  S
O1924     Zr1930   2.377       .  S
O1924      H1959   0.966       .  S
O1925     Zr1928   2.392       .  S
O1925     Zr1945   2.393       .  S
O1925      H1962   0.965       .  S
O1926     Zr1929   2.392   1_545  S
O1926     Zr1945   2.396       .  S
Zr1927     O1952   2.446       .  S
Zr1927     O1946   2.429       .  S
Zr1927     O1954   2.459       .  S
Zr1927     O1942   2.432       .  S
Zr1927     O1933   2.398       .  S
Zr1927     O1934   2.410       .  S
Zr1927     O1935   2.390   1_565  S
Zr1927     O1936   2.379       .  S
Zr1928     O1947   2.436       .  S
Zr1928     O1940   2.435       .  S
Zr1928     O1941   2.410       .  S
Zr1928     O1934   2.405   1_545  S
Zr1928     O1935   2.395       .  S
Zr1929     O1931   2.436       .  S
Zr1929     O1953   2.434       .  S
Zr1929     O1955   2.417       .  S
Zr1929     O1933   2.385       .  S
Zr1929     O1936   2.384       .  S
Zr1930     O1956   2.434       .  S
Zr1930     O1957   2.436       .  S
Zr1930     O1932   2.436       .  S
Zr1930     O1933   2.393       .  S
Zr1930     O1934   2.382       .  S
O1931      H1968   0.990       .  S
O1932      H1963   0.990       .  S
O1932      H1977   0.990       .  S
O1934      H1960   0.965       .  S
O1935     Zr1945   2.371       .  S
O1936     Zr1945   2.370   1_565  S
O1936      H1961   0.966       .  S
C1937      C2844   1.479       .  S
C1938      C2277   1.475       .  S
C1939      C2177   1.496       .  S
O1940      H1976   0.990       .  S
O1941      C1943   1.282       .  A
O1942      C1943   1.285   1_565  A
C1943      C2977   1.471       .  S
O1944     Zr1945   2.438       .  S
O1944      H1973   0.991       .  S
Zr1945     O1948   2.438       .  S
Zr1945     O1949   2.438       .  S
Zr1945     O1950   2.428       .  S
O1946      C1951   1.284   1_565  A
O1947      H1964   0.990       .  S
O1947      H1979   0.990       .  S
O1948      H1965   0.990       .  S
O1949      H1969   0.990       .  S
O1949      H1978   0.990       .  S
O1950      C1951   1.284       .  A
C1951      C2144   1.489       .  S
O1952      H1971   0.990       .  S
O1952      H1975   0.990       .  S
O1953      H1967   0.990       .  S
O1953      H1974   0.990       .  S
O1954      C1958   1.289       .  A
O1955      C1958   1.283       .  A
O1956      H1966   0.990       .  S
O1957      H1970   0.989       .  S
C1958      C2484   1.493       .  S
Zr1981     O1982   2.440       .  S
Zr1981     O1983   2.462       .  S
Zr1981     O1984   2.434       .  S
Zr1981     O1987   2.418       .  S
Zr1981     O1989   2.369       .  S
Zr1981     O1990   2.386       .  S
Zr1981     O1991   2.410       .  S
Zr1981     O1992   2.410       .  S
O1982      H2038   0.990       .  S
O1982      H2046   0.990       .  S
O1983      C2003   1.289       .  A
O1984      C2005   1.283       .  A
O1985     Zr1995   2.421       .  S
O1985      C2004   1.283       .  A
O1986     Zr1994   2.435       .  S
O1986      C2005   1.284       .  A
O1987      C2004   1.281       .  A
O1988     Zr1996   2.416   1_455  S
O1988      C2003   1.281   1_455  A
O1989     Zr1994   2.388       .  S
O1989     Zr1996   2.384       .  S
O1990     Zr1995   2.397       .  S
O1990     Zr1996   2.375       .  S
O1990      H2025   0.966       .  S
O1991     Zr1994   2.389       .  S
O1991     Zr2011   2.403       .  S
O1991      H2028   0.965       .  S
O1992     Zr1995   2.388       .  S
O1992     Zr2011   2.397       .  S
Zr1993     O2018   2.444       .  S
Zr1993     O2012   2.440   1_554  S
Zr1993     O2020   2.452       .  S
Zr1993     O2008   2.456   1_655  S
Zr1993     O1999   2.403       .  S
Zr1993     O2000   2.409       .  S
Zr1993     O2001   2.388       .  S
Zr1993     O2002   2.386       .  S
Zr1994     O2013   2.436       .  S
Zr1994     O2006   2.433   1_655  S
Zr1994     O2007   2.395   1_655  S
Zr1994     O2000   2.404       .  S
Zr1994     O2001   2.392       .  S
Zr1995     O1997   2.435       .  S
Zr1995     O2019   2.437       .  S
Zr1995     O2021   2.429       .  S
Zr1995     O1999   2.384       .  S
Zr1995     O2002   2.391       .  S
Zr1996     O2022   2.435       .  S
Zr1996     O2023   2.436   1_655  S
Zr1996     O1998   2.438   1_655  S
Zr1996     O1999   2.391       .  S
Zr1996     O2000   2.388       .  S
O1997      H2034   0.990       .  S
O1998      H2029   0.990       .  S
O1998      H2043   0.990       .  S
O2000      H2026   0.965   1_655  S
O2001     Zr2011   2.371       .  S
O2002     Zr2011   2.369       .  S
O2002      H2027   0.966       .  S
C2003      C3457   1.499   1_655  S
C2004      C2397   1.471       .  S
C2005      C2117   1.493       .  S
O2006      H2042   0.989       .  S
O2007      C2009   1.279       .  A
O2008      C2009   1.289       .  A
C2009      C3344   1.483   1_554  S
O2010     Zr2011   2.439       .  S
O2010      H2039   0.991       .  S
Zr2011     O2014   2.438       .  S
Zr2011     O2015   2.440       .  S
Zr2011     O2016   2.444       .  S
O2012      C2017   1.287       .  A
O2013      H2030   0.990   1_655  S
O2013      H2045   0.990       .  S
O2014      H2031   0.990       .  S
O2015      H2035   0.990       .  S
O2015      H2044   0.990       .  S
O2016      C2017   1.286   1_554  A
C2017      C2164   1.501       .  S
O2018      H2037   0.991       .  S
O2018      H2041   0.990   1_655  S
O2019      H2033   0.990       .  S
O2019      H2040   0.990       .  S
O2020      C2024   1.289       .  A
O2021      C2024   1.285       .  A
O2022      H2032   0.990       .  S
O2023      H2036   0.990       .  S
C2024      C2604   1.494       .  S
Zr2047     O2048   2.441       .  S
Zr2047     O2049   2.450       .  S
Zr2047     O2050   2.441       .  S
Zr2047     O2053   2.424       .  S
Zr2047     O2055   2.376       .  S
Zr2047     O2056   2.385   1_545  S
Zr2047     O2057   2.413       .  S
Zr2047     O2058   2.407       .  S
O2048      H2104   0.990       .  S
O2048      H2112   0.990       .  S
O2049      C2069   1.286       .  A
O2050      C2071   1.284       .  A
O2051     Zr2061   2.405       .  S
O2051      C2070   1.279   1_565  A
O2052     Zr2060   2.446       .  S
O2052      C2071   1.286       .  A
O2053      C2070   1.282       .  A
O2054     Zr2062   2.411   1_455  S
O2054      C2069   1.279   1_465  A
O2055     Zr2060   2.395       .  S
O2055     Zr2062   2.384   1_545  S
O2056     Zr2061   2.395       .  S
O2056     Zr2062   2.376       .  S
O2056      H2091   0.967       .  S
O2057     Zr2060   2.393       .  S
O2057     Zr2077   2.400       .  S
O2057      H2094   0.965       .  S
O2058     Zr2061   2.393   1_545  S
O2058     Zr2077   2.397       .  S
Zr2059     O2084   2.440       .  S
Zr2059     O2078   2.418       .  S
Zr2059     O2086   2.445       .  S
Zr2059     O2074   2.426       .  S
Zr2059     O2065   2.398       .  S
Zr2059     O2066   2.407       .  S
Zr2059     O2067   2.388   1_565  S
Zr2059     O2068   2.375       .  S
Zr2060     O2079   2.436       .  S
Zr2060     O2072   2.437   1_655  S
Zr2060     O2073   2.421   1_655  S
Zr2060     O2066   2.404   1_545  S
Zr2060     O2067   2.390       .  S
Zr2061     O2063   2.437       .  S
Zr2061     O2085   2.435       .  S
Zr2061     O2087   2.427       .  S
Zr2061     O2065   2.383       .  S
Zr2061     O2068   2.382       .  S
Zr2062     O2088   2.436       .  S
Zr2062     O2089   2.434   1_655  S
Zr2062     O2064   2.435   1_655  S
Zr2062     O2065   2.398       .  S
Zr2062     O2066   2.389       .  S
O2063      H2100   0.990       .  S
O2064      H2095   0.990       .  S
O2064      H2109   0.990       .  S
O2066      H2092   0.966   1_655  S
O2067     Zr2077   2.371       .  S
O2068     Zr2077   2.366   1_565  S
O2068      H2093   0.966       .  S
C2069      C2257   1.491   1_655  S
C2070      C2857   1.463       .  S
C2071      C2124   1.501       .  S
O2072      H2108   0.990       .  S
O2073      C2075   1.284       .  A
O2074      C2075   1.284   1_665  A
C2075      C2197   1.475       .  S
O2076     Zr2077   2.438       .  S
O2076      H2105   0.990       .  S
Zr2077     O2080   2.437       .  S
Zr2077     O2081   2.438       .  S
Zr2077     O2082   2.445       .  S
O2078      C2083   1.283   1_565  A
O2079      H2096   0.990       .  S
O2079      H2111   0.990       .  S
O2080      H2097   0.990       .  S
O2081      H2101   0.990       .  S
O2081      H2110   0.990       .  S
O2082      C2083   1.287       .  A
C2083      C2137   1.489   1_545  S
O2084      H2103   0.990       .  S
O2084      H2107   0.990       .  S
O2085      H2099   0.990       .  S
O2085      H2106   0.990       .  S
O2086      C2090   1.287       .  A
O2087      C2090   1.284       .  A
O2088      H2098   0.990       .  S
O2089      H2102   0.989       .  S
C2090      C2684   1.490       .  S
C2113      C2114   1.403       .  A
C2113      C2118   1.398       .  A
C2113      F2131   1.358       .  S
C2114      C2119   1.486       .  S
C2114      C2115   1.406   1_655  A
C2115      C2116   1.403       .  A
C2115      F2120   1.358       .  S
C2116      C2117   1.412   1_455  A
C2116      F2132   1.358       .  S
C2117      C2118   1.413       .  A
C2118      F2121   1.358       .  S
C2119      C2122   1.402       .  A
C2119      C2126   1.405   1_655  A
C2122      C2123   1.398       .  A
C2122      F2127   1.358       .  S
C2123      C2124   1.416       .  A
C2123      F2129   1.356       .  S
C2124      C2125   1.415   1_655  A
C2125      C2126   1.404       .  A
C2125      F2128   1.357       .  S
C2126      F2130   1.358       .  S
C2133      C2134   1.404       .  A
C2133      C2138   1.398       .  A
C2133      F2151   1.358       .  S
C2134      C2139   1.482       .  S
C2134      C2135   1.404   1_565  A
C2135      C2136   1.401       .  A
C2135      F2140   1.358       .  S
C2136      C2137   1.411   1_545  A
C2136      F2152   1.358       .  S
C2137      C2138   1.412       .  A
C2138      F2141   1.358       .  S
C2139      C2142   1.403   1_565  A
C2139      C2146   1.405       .  A
C2142      C2143   1.395       .  A
C2142      F2147   1.358       .  S
C2143      C2144   1.412       .  A
C2143      F2149   1.358       .  S
C2144      C2145   1.413   1_545  A
C2145      C2146   1.402       .  A
C2145      F2148   1.358       .  S
C2146      F2150   1.358       .  S
C2153      C2154   1.404       .  A
C2153      C2158   1.404       .  A
C2153      F2171   1.358       .  S
C2154      C2159   1.489       .  S
C2154      C2155   1.403       .  A
C2155      C2156   1.403       .  A
C2155      F2160   1.358       .  S
C2156      C2157   1.417       .  A
C2156      F2172   1.358       .  S
C2157      C2158   1.415       .  A
C2158      F2161   1.358       .  S
C2159      C2162   1.404       .  A
C2159      C2166   1.403       .  A
C2162      C2163   1.404       .  A
C2162      F2167   1.358       .  S
C2163      C2164   1.416       .  A
C2163      F2169   1.358       .  S
C2164      C2165   1.414       .  A
C2165      C2166   1.403       .  A
C2165      F2168   1.357       .  S
C2166      F2170   1.358       .  S
C2173      C2174   1.405       .  A
C2173      C2178   1.400       .  A
C2173      F2191   1.358       .  S
C2174      C2179   1.488       .  S
C2174      C2175   1.405       .  A
C2175      C2176   1.402       .  A
C2175      F2180   1.358       .  S
C2176      C2177   1.413       .  A
C2176      F2192   1.357       .  S
C2177      C2178   1.414       .  A
C2178      F2181   1.357       .  S
C2179      C2182   1.406       .  A
C2179      C2186   1.405       .  A
C2182      C2183   1.400       .  A
C2182      F2187   1.358       .  S
C2183      C2184   1.411       .  A
C2183      F2189   1.357       .  S
C2184      C2185   1.414       .  A
C2185      C2186   1.401       .  A
C2185      F2188   1.358       .  S
C2186      F2190   1.358       .  S
C2193      C2194   1.404   1_565  A
C2193      C2198   1.397       .  A
C2193      F2211   1.358       .  S
C2194      C2199   1.477       .  S
C2194      C2195   1.405       .  A
C2195      C2196   1.393       .  A
C2195      F2200   1.358       .  S
C2196      C2197   1.407       .  A
C2196      F2212   1.359       .  S
C2197      C2198   1.408   1_545  A
C2198      F2201   1.357       .  S
C2199      C2202   1.407   1_545  A
C2199      C2206   1.400       .  A
C2202      C2203   1.400       .  A
C2202      F2207   1.358       .  S
C2203      C2204   1.409   1_565  A
C2203      F2209   1.357       .  S
C2204      C2205   1.413       .  A
C2205      C2206   1.391       .  A
C2205      F2208   1.357       .  S
C2206      F2210   1.358       .  S
C2213      C2214   1.401       .  A
C2213      C2218   1.402       .  A
C2213      F2231   1.357       .  S
C2214      C2219   1.476       .  S
C2214      C2215   1.399       .  A
C2215      C2216   1.396       .  A
C2215      F2220   1.358       .  S
C2216      C2217   1.416       .  A
C2216      F2232   1.356       .  S
C2217      C2218   1.414       .  A
C2218      F2221   1.358       .  S
C2219      C2222   1.399       .  A
C2219      C2226   1.401       .  A
C2222      C2223   1.398       .  A
C2222      F2227   1.358       .  S
C2223      C2224   1.416       .  A
C2223      F2229   1.356       .  S
C2224      C2225   1.415       .  A
C2225      C2226   1.402       .  A
C2225      F2228   1.357       .  S
C2226      F2230   1.358       .  S
C2233      C2234   1.404       .  A
C2233      C2238   1.401       .  A
C2233      F2251   1.358       .  S
C2234      C2239   1.480       .  S
C2234      C2235   1.401       .  A
C2235      C2236   1.396       .  A
C2235      F2240   1.358       .  S
C2236      C2237   1.414       .  A
C2236      F2252   1.358       .  S
C2237      C2238   1.413       .  A
C2238      F2241   1.358       .  S
C2239      C2242   1.404       .  A
C2239      C2246   1.403       .  A
C2242      C2243   1.402       .  A
C2242      F2247   1.358       .  S
C2243      C2244   1.412       .  A
C2243      F2249   1.358       .  S
C2244      C2245   1.412       .  A
C2245      C2246   1.399       .  A
C2245      F2248   1.358       .  S
C2246      F2250   1.358       .  S
C2253      C2254   1.403       .  A
C2253      C2258   1.399   1_545  A
C2253      F2271   1.358   1_545  S
C2254      C2259   1.483       .  S
C2254      C2255   1.405       .  A
C2255      C2256   1.401   1_455  A
C2255      F2260   1.358   1_455  S
C2256      C2257   1.410   1_655  A
C2256      F2272   1.358       .  S
C2257      C2258   1.414   1_545  A
C2258      F2261   1.358       .  S
C2259      C2262   1.406   1_544  A
C2259      C2266   1.405   1_554  A
C2262      C2263   1.401       .  A
C2262      F2267   1.358   1_556  S
C2263      C2264   1.409   1_565  A
C2263      F2269   1.358       .  S
C2264      C2265   1.408       .  A
C2265      C2266   1.399       .  A
C2265      F2268   1.358       .  S
C2266      F2270   1.358   1_556  S
C2273      C2274   1.404       .  A
C2273      C2278   1.394       .  A
C2273      F2291   1.358       .  S
C2274      C2279   1.473       .  S
C2274      C2275   1.402   1_545  A
C2275      C2276   1.397       .  A
C2275      F2280   1.358       .  S
C2276      C2277   1.411   1_565  A
C2276      F2292   1.358       .  S
C2277      C2278   1.406       .  A
C2278      F2281   1.358       .  S
C2279      C2282   1.400   1_545  A
C2279      C2286   1.402   1_655  A
C2282      C2283   1.393   1_655  A
C2282      F2287   1.358       .  S
C2283      C2284   1.413   1_565  A
C2283      F2289   1.358       .  S
C2284      C2285   1.414       .  A
C2285      C2286   1.400       .  A
C2285      F2288   1.358       .  S
C2286      F2290   1.358       .  S
C2293      C2294   1.399   1_565  A
C2293      C2298   1.396       .  A
C2293      F2311   1.358       .  S
C2294      C2299   1.471       .  S
C2294      C2295   1.400       .  A
C2295      C2296   1.399       .  A
C2295      F2300   1.358       .  S
C2296      C2297   1.413       .  A
C2296      F2312   1.358       .  S
C2297      C2298   1.414   1_545  A
C2298      F2301   1.358       .  S
C2299      C2302   1.398   1_545  A
C2299      C2306   1.400       .  A
C2302      C2303   1.396       .  A
C2302      F2307   1.358       .  S
C2303      C2304   1.415   1_565  A
C2303      F2309   1.358       .  S
C2304      C2305   1.415       .  A
C2305      C2306   1.399       .  A
C2305      F2308   1.358       .  S
C2306      F2310   1.358       .  S
C2313      C2314   1.403       .  A
C2313      C2318   1.405       .  A
C2313      F2331   1.357       .  S
C2314      C2319   1.483       .  S
C2314      C2315   1.400       .  A
C2315      C2316   1.399       .  A
C2315      F2320   1.358       .  S
C2316      C2317   1.417       .  A
C2316      F2332   1.357       .  S
C2317      C2318   1.414       .  A
C2318      F2321   1.357       .  S
C2319      C2322   1.403       .  A
C2319      C2326   1.403       .  A
C2322      C2323   1.402       .  A
C2322      F2327   1.358       .  S
C2323      C2324   1.413       .  A
C2323      F2329   1.358       .  S
C2324      C2325   1.412       .  A
C2325      C2326   1.403       .  A
C2325      F2328   1.357       .  S
C2326      F2330   1.358       .  S
C2333      C2334   1.401       .  A
C2333      C2338   1.391       .  A
C2333      F2351   1.359       .  S
C2334      C2339   1.468       .  S
C2334      C2335   1.403       .  A
C2335      C2336   1.395       .  A
C2335      F2340   1.358       .  S
C2336      C2337   1.407       .  A
C2336      F2352   1.357       .  S
C2337      C2338   1.412       .  A
C2338      F2341   1.359       .  S
C2339      C2342   1.397       .  A
C2339      C2346   1.406       .  A
C2342      C2343   1.388       .  A
C2342      F2347   1.359       .  S
C2343      C2344   1.416       .  A
C2343      F2349   1.358       .  S
C2344      C2345   1.406       .  A
C2345      C2346   1.397       .  A
C2345      F2348   1.358       .  S
C2346      F2350   1.358       .  S
C2353      C2354   1.405       .  A
C2353      C2358   1.402       .  A
C2353      F2371   1.358       .  S
C2354      C2359   1.487       .  S
C2354      C2355   1.405       .  A
C2355      C2356   1.402       .  A
C2355      F2360   1.357       .  S
C2356      C2357   1.410       .  A
C2356      F2372   1.358       .  S
C2357      C2358   1.412       .  A
C2358      F2361   1.358       .  S
C2359      C2362   1.403       .  A
C2359      C2366   1.403       .  A
C2362      C2363   1.403       .  A
C2362      F2367   1.358       .  S
C2363      C2364   1.417       .  A
C2363      F2369   1.358       .  S
C2364      C2365   1.415       .  A
C2365      C2366   1.401       .  A
C2365      F2368   1.356       .  S
C2366      F2370   1.358       .  S
C2373      C2374   1.402       .  A
C2373      C2378   1.398       .  A
C2373      F2391   1.358       .  S
C2374      C2379   1.486       .  S
C2374      C2375   1.406       .  A
C2375      C2376   1.403       .  A
C2375      F2380   1.358       .  S
C2376      C2377   1.413       .  A
C2376      F2392   1.357       .  S
C2377      C2378   1.415       .  A
C2378      F2381   1.358       .  S
C2379      C2382   1.407       .  A
C2379      C2386   1.405       .  A
C2382      C2383   1.399       .  A
C2382      F2387   1.358       .  S
C2383      C2384   1.407       .  A
C2383      F2389   1.358       .  S
C2384      C2385   1.410       .  A
C2385      C2386   1.400       .  A
C2385      F2388   1.358       .  S
C2386      F2390   1.358       .  S
C2393      C2394   1.403       .  A
C2393      C2398   1.398       .  A
C2393      F2411   1.358       .  S
C2394      C2399   1.469       .  S
C2394      C2395   1.401       .  A
C2395      C2396   1.394       .  A
C2395      F2400   1.358       .  S
C2396      C2397   1.407       .  A
C2396      F2412   1.358       .  S
C2397      C2398   1.407       .  A
C2398      F2401   1.358       .  S
C2399      C2402   1.399       .  A
C2399      C2406   1.399       .  A
C2402      C2403   1.396       .  A
C2402      F2407   1.358       .  S
C2403      C2404   1.414       .  A
C2403      F2409   1.358       .  S
C2404      C2405   1.415       .  A
C2405      C2406   1.398       .  A
C2405      F2408   1.356       .  S
C2406      F2410   1.358       .  S
C2413      C2414   1.403       .  A
C2413      C2418   1.403       .  A
C2413      F2431   1.358       .  S
C2414      C2419   1.485       .  S
C2414      C2415   1.403       .  A
C2415      C2416   1.403       .  A
C2415      F2420   1.357       .  S
C2416      C2417   1.413       .  A
C2416      F2432   1.358       .  S
C2417      C2418   1.414       .  A
C2418      F2421   1.358       .  S
C2419      C2422   1.402       .  A
C2419      C2426   1.403       .  A
C2422      C2423   1.403       .  A
C2422      F2427   1.358       .  S
C2423      C2424   1.417       .  A
C2423      F2429   1.358       .  S
C2424      C2425   1.416       .  A
C2425      C2426   1.404       .  A
C2425      F2428   1.358       .  S
C2426      F2430   1.358       .  S
C2433      C2434   1.405       .  A
C2433      C2438   1.398       .  A
C2433      F2451   1.358       .  S
C2434      C2439   1.487       .  S
C2434      C2435   1.405       .  A
C2435      C2436   1.400       .  A
C2435      F2440   1.358       .  S
C2436      C2437   1.415       .  A
C2436      F2452   1.358       .  S
C2437      C2438   1.412       .  A
C2438      F2441   1.358       .  S
C2439      C2442   1.408       .  A
C2439      C2446   1.406       .  A
C2442      C2443   1.401       .  A
C2442      F2447   1.358       .  S
C2443      C2444   1.409       .  A
C2443      F2449   1.358       .  S
C2444      C2445   1.409       .  A
C2445      C2446   1.398       .  A
C2445      F2448   1.358       .  S
C2446      F2450   1.358       .  S
C2453      C2454   1.401       .  A
C2453      C2458   1.398       .  A
C2453      F2471   1.358       .  S
C2454      C2459   1.481       .  S
C2454      C2455   1.403       .  A
C2455      C2456   1.402       .  A
C2455      F2460   1.358       .  S
C2456      C2457   1.415       .  A
C2456      F2472   1.358       .  S
C2457      C2458   1.415       .  A
C2458      F2461   1.356       .  S
C2459      C2462   1.403       .  A
C2459      C2466   1.401       .  A
C2462      C2463   1.402       .  A
C2462      F2467   1.358       .  S
C2463      C2464   1.413       .  A
C2463      F2469   1.357       .  S
C2464      C2465   1.416       .  A
C2465      C2466   1.400       .  A
C2465      F2468   1.357       .  S
C2466      F2470   1.358       .  S
C2473      C2474   1.408       .  A
C2473      C2478   1.408       .  A
C2473      F2491   1.357       .  S
C2474      C2479   1.485       .  S
C2474      C2475   1.401       .  A
C2475      C2476   1.393       .  A
C2475      F2480   1.358       .  S
C2476      C2477   1.414       .  A
C2476      F2492   1.358       .  S
C2477      C2478   1.412       .  A
C2478      F2481   1.357       .  S
C2479      C2482   1.407       .  A
C2479      C2486   1.403       .  A
C2482      C2483   1.404       .  A
C2482      F2487   1.358       .  S
C2483      C2484   1.410       .  A
C2483      F2489   1.357       .  S
C2484      C2485   1.413       .  A
C2485      C2486   1.398       .  A
C2485      F2488   1.358       .  S
C2486      F2490   1.358       .  S
C2493      C2494   1.403       .  A
C2493      C2498   1.398       .  A
C2493      F2511   1.358       .  S
C2494      C2499   1.488       .  S
C2494      C2495   1.409   1_455  A
C2495      C2496   1.405       .  A
C2495      F2500   1.358       .  S
C2496      C2497   1.409   1_655  A
C2496      F2512   1.358       .  S
C2497      C2498   1.412       .  A
C2498      F2501   1.358       .  S
C2499      C2502   1.408       .  A
C2499      C2506   1.404       .  A
C2502      C2503   1.402       .  A
C2502      F2507   1.358       .  S
C2503      C2504   1.408       .  A
C2503      F2509   1.358       .  S
C2504      C2505   1.413       .  A
C2505      C2506   1.400       .  A
C2505      F2508   1.358       .  S
C2506      F2510   1.358       .  S
C2513      C2514   1.403       .  A
C2513      C2518   1.397       .  A
C2513      F2531   1.358       .  S
C2514      C2519   1.471       .  S
C2514      C2515   1.402       .  A
C2515      C2516   1.392       .  A
C2515      F2520   1.358       .  S
C2516      C2517   1.409       .  A
C2516      F2532   1.358       .  S
C2517      C2518   1.409       .  A
C2518      F2521   1.357       .  S
C2519      C2522   1.404       .  A
C2519      C2526   1.399       .  A
C2522      C2523   1.400       .  A
C2522      F2527   1.358       .  S
C2523      C2524   1.410       .  A
C2523      F2529   1.357       .  S
C2524      C2525   1.413       .  A
C2525      C2526   1.390       .  A
C2525      F2528   1.358       .  S
C2526      F2530   1.359       .  S
C2533      C2534   1.409       .  A
C2533      C2538   1.406       .  A
C2533      F2551   1.358       .  S
C2534      C2539   1.489       .  S
C2534      C2535   1.403       .  A
C2535      C2536   1.397       .  A
C2535      F2540   1.358       .  S
C2536      C2537   1.413       .  A
C2536      F2552   1.358       .  S
C2537      C2538   1.410       .  A
C2538      F2541   1.358       .  S
C2539      C2542   1.410       .  A
C2539      C2546   1.403       .  A
C2542      C2543   1.407       .  A
C2542      F2547   1.358       .  S
C2543      C2544   1.409       .  A
C2543      F2549   1.358       .  S
C2544      C2545   1.411       .  A
C2545      C2546   1.396       .  A
C2545      F2548   1.358       .  S
C2546      F2550   1.358       .  S
C2553      C2554   1.398       .  A
C2553      C2558   1.392       .  A
C2553      F2571   1.359       .  S
C2554      C2559   1.465       .  S
C2554      C2555   1.398       .  A
C2555      C2556   1.397       .  A
C2555      F2560   1.358       .  S
C2556      C2557   1.414       .  A
C2556      F2572   1.356       .  S
C2557      C2558   1.415       .  A
C2558      F2561   1.358       .  S
C2559      C2562   1.402       .  A
C2559      C2566   1.398       .  A
C2562      C2563   1.398       .  A
C2562      F2567   1.357       .  S
C2563      C2564   1.408       .  A
C2563      F2569   1.358       .  S
C2564      C2565   1.412       .  A
C2565      C2566   1.391       .  A
C2565      F2568   1.358       .  S
C2566      F2570   1.358       .  S
C2573      C2574   1.404   1_455  A
C2573      C2578   1.398   1_455  A
C2573      F2591   1.358       .  S
C2574      C2579   1.489       .  S
C2574      C2575   1.408       .  A
C2575      C2576   1.402       .  A
C2575      F2580   1.358       .  S
C2576      C2577   1.413       .  A
C2576      F2592   1.358       .  S
C2577      C2578   1.413       .  A
C2578      F2581   1.357   1_655  S
C2579      C2582   1.405       .  A
C2579      C2586   1.407       .  A
C2582      C2583   1.402       .  A
C2582      F2587   1.358   1_655  S
C2583      C2584   1.413       .  A
C2583      F2589   1.357   1_655  S
C2584      C2585   1.411       .  A
C2585      C2586   1.398       .  A
C2585      F2588   1.358       .  S
C2586      F2590   1.358       .  S
C2593      C2594   1.406       .  A
C2593      C2598   1.399       .  A
C2593      F2611   1.358       .  S
C2594      C2599   1.491       .  S
C2594      C2595   1.408       .  A
C2595      C2596   1.404       .  A
C2595      F2600   1.358       .  S
C2596      C2597   1.409       .  A
C2596      F2612   1.357       .  S
C2597      C2598   1.411       .  A
C2598      F2601   1.358       .  S
C2599      C2602   1.406       .  A
C2599      C2606   1.408       .  A
C2602      C2603   1.399       .  A
C2602      F2607   1.358       .  S
C2603      C2604   1.412       .  A
C2603      F2609   1.358       .  S
C2604      C2605   1.411       .  A
C2605      C2606   1.404       .  A
C2605      F2608   1.357       .  S
C2606      F2610   1.358       .  S
C2613      C2614   1.408       .  A
C2613      C2618   1.404       .  A
C2613      F2631   1.358       .  S
C2614      C2619   1.489       .  S
C2614      C2615   1.403       .  A
C2615      C2616   1.399       .  A
C2615      F2620   1.358       .  S
C2616      C2617   1.415       .  A
C2616      F2632   1.358       .  S
C2617      C2618   1.410       .  A
C2618      F2621   1.357       .  S
C2619      C2622   1.409       .  A
C2619      C2626   1.405       .  A
C2622      C2623   1.403       .  A
C2622      F2627   1.358       .  S
C2623      C2624   1.408       .  A
C2623      F2629   1.358       .  S
C2624      C2625   1.410       .  A
C2625      C2626   1.399       .  A
C2625      F2628   1.358       .  S
C2626      F2630   1.358       .  S
C2633      C2634   1.401       .  A
C2633      C2638   1.389       .  A
C2633      F2651   1.359       .  S
C2634      C2639   1.467       .  S
C2634      C2635   1.403       .  A
C2635      C2636   1.397       .  A
C2635      F2640   1.358       .  S
C2636      C2637   1.408       .  A
C2636      F2652   1.357       .  S
C2637      C2638   1.410       .  A
C2638      F2641   1.359       .  S
C2639      C2642   1.399       .  A
C2639      C2646   1.404       .  A
C2642      C2643   1.389       .  A
C2642      F2647   1.359       .  S
C2643      C2644   1.412       .  A
C2643      F2649   1.357       .  S
C2644      C2645   1.407       .  A
C2645      C2646   1.396       .  A
C2645      F2648   1.357       .  S
C2646      F2650   1.358       .  S
C2653      C2654   1.409       .  A
C2653      C2658   1.402       .  A
C2653      F2671   1.357       .  S
C2654      C2659   1.497       .  S
C2654      C2655   1.409       .  A
C2655      C2656   1.402       .  A
C2655      F2660   1.358       .  S
C2656      C2657   1.413       .  A
C2656      F2672   1.358       .  S
C2657      C2658   1.411       .  A
C2658      F2661   1.358       .  S
C2659      C2662   1.410       .  A
C2659      C2666   1.410       .  A
C2662      C2663   1.403       .  A
C2662      F2667   1.358       .  S
C2663      C2664   1.407       .  A
C2663      F2669   1.358       .  S
C2664      C2665   1.407       .  A
C2665      C2666   1.403       .  A
C2665      F2668   1.358       .  S
C2666      F2670   1.358       .  S
C2673      C2674   1.407       .  A
C2673      C2678   1.405       .  A
C2673      F2691   1.358       .  S
C2674      C2679   1.485       .  S
C2674      C2675   1.404       .  A
C2675      C2676   1.396       .  A
C2675      F2680   1.358       .  S
C2676      C2677   1.410       .  A
C2676      F2692   1.358       .  S
C2677      C2678   1.411       .  A
C2678      F2681   1.357       .  S
C2679      C2682   1.406       .  A
C2679      C2686   1.404       .  A
C2682      C2683   1.403       .  A
C2682      F2687   1.358       .  S
C2683      C2684   1.410       .  A
C2683      F2689   1.357       .  S
C2684      C2685   1.412       .  A
C2685      C2686   1.398       .  A
C2685      F2688   1.358       .  S
C2686      F2690   1.358       .  S
C2693      C2694   1.402       .  A
C2693      C2698   1.398       .  A
C2693      F2711   1.358       .  S
C2694      C2699   1.469       .  S
C2694      C2695   1.400       .  A
C2695      C2696   1.395       .  A
C2695      F2700   1.358       .  S
C2696      C2697   1.409       .  A
C2696      F2712   1.358       .  S
C2697      C2698   1.409       .  A
C2698      F2701   1.358       .  S
C2699      C2702   1.399       .  A
C2699      C2706   1.400       .  A
C2702      C2703   1.394   1_655  A
C2702      F2707   1.358       .  S
C2703      C2704   1.412       .  A
C2703      F2709   1.358       .  S
C2704      C2705   1.412       .  A
C2705      C2706   1.399   1_455  A
C2705      F2708   1.357       .  S
C2706      F2710   1.358       .  S
C2713      C2714   1.405       .  A
C2713      C2718   1.402       .  A
C2713      F2731   1.358       .  S
C2714      C2719   1.486       .  S
C2714      C2715   1.404       .  A
C2715      C2716   1.401       .  A
C2715      F2720   1.358       .  S
C2716      C2717   1.411       .  A
C2716      F2732   1.358       .  S
C2717      C2718   1.412       .  A
C2718      F2721   1.358       .  S
C2719      C2722   1.403       .  A
C2719      C2726   1.404       .  A
C2722      C2723   1.401       .  A
C2722      F2727   1.358       .  S
C2723      C2724   1.415       .  A
C2723      F2729   1.358       .  S
C2724      C2725   1.415       .  A
C2725      C2726   1.401       .  A
C2725      F2728   1.358       .  S
C2726      F2730   1.358       .  S
C2733      C2734   1.402       .  A
C2733      C2738   1.399       .  A
C2733      F2751   1.358       .  S
C2734      C2739   1.481       .  S
C2734      C2735   1.402       .  A
C2735      C2736   1.401       .  A
C2735      F2740   1.358       .  S
C2736      C2737   1.415       .  A
C2736      F2752   1.358       .  S
C2737      C2738   1.415       .  A
C2738      F2741   1.357       .  S
C2739      C2742   1.401       .  A
C2739      C2746   1.403       .  A
C2742      C2743   1.398       .  A
C2742      F2747   1.358       .  S
C2743      C2744   1.415       .  A
C2743      F2749   1.357       .  S
C2744      C2745   1.415       .  A
C2745      C2746   1.403       .  A
C2745      F2748   1.357       .  S
C2746      F2750   1.358       .  S
C2753      C2754   1.406       .  A
C2753      C2758   1.396       .  A
C2753      F2771   1.358       .  S
C2754      C2759   1.491       .  S
C2754      C2755   1.410       .  A
C2755      C2756   1.405       .  A
C2755      F2760   1.358       .  S
C2756      C2757   1.409       .  A
C2756      F2772   1.357       .  S
C2757      C2758   1.410       .  A
C2758      F2761   1.358       .  S
C2759      C2762   1.410       .  A
C2759      C2766   1.406       .  A
C2762      C2763   1.404       .  A
C2762      F2767   1.358       .  S
C2763      C2764   1.409       .  A
C2763      F2769   1.357       .  S
C2764      C2765   1.409       .  A
C2765      C2766   1.397       .  A
C2765      F2768   1.358       .  S
C2766      F2770   1.358       .  S
C2773      C2774   1.402   1_556  A
C2773      C2778   1.398       .  A
C2773      F2791   1.358   1_556  S
C2774      C2779   1.483       .  S
C2774      C2775   1.407   1_554  A
C2775      C2776   1.403       .  A
C2775      F2780   1.358   1_556  S
C2776      C2777   1.410       .  A
C2776      F2792   1.358       .  S
C2777      C2778   1.411       .  A
C2778      F2781   1.358       .  S
C2779      C2782   1.407       .  A
C2779      C2786   1.402       .  A
C2782      C2783   1.402       .  A
C2782      F2787   1.358       .  S
C2783      C2784   1.409       .  A
C2783      F2789   1.358       .  S
C2784      C2785   1.413       .  A
C2785      C2786   1.397       .  A
C2785      F2788   1.358       .  S
C2786      F2790   1.358       .  S
C2793      C2794   1.400       .  A
C2793      C2798   1.396       .  A
C2793      F2811   1.358       .  S
C2794      C2799   1.465       .  S
C2794      C2795   1.400       .  A
C2795      C2796   1.392       .  A
C2795      F2800   1.358       .  S
C2796      C2797   1.412       .  A
C2796      F2812   1.359       .  S
C2797      C2798   1.411       .  A
C2798      F2801   1.357       .  S
C2799      C2802   1.399       .  A
C2799      C2806   1.400       .  A
C2802      C2803   1.394       .  A
C2802      F2807   1.359       .  S
C2803      C2804   1.412       .  A
C2803      F2809   1.358       .  S
C2804      C2805   1.409       .  A
C2805      C2806   1.396       .  A
C2805      F2808   1.357       .  S
C2806      F2810   1.358       .  S
C2813      C2814   1.412       .  A
C2813      C2818   1.405       .  A
C2813      F2831   1.357       .  S
C2814      C2819   1.489       .  S
C2814      C2815   1.405       .  A
C2815      C2816   1.390   1_554  A
C2815      F2820   1.358   1_554  S
C2816      C2817   1.410   1_556  A
C2816      F2832   1.359       .  S
C2817      C2818   1.406       .  A
C2818      F2821   1.358       .  S
C2819      C2822   1.407       .  A
C2819      C2826   1.410       .  A
C2822      C2823   1.397   1_554  A
C2822      F2827   1.358   1_554  S
C2823      C2824   1.409   1_556  A
C2823      F2829   1.358       .  S
C2824      C2825   1.407       .  A
C2825      C2826   1.401       .  A
C2825      F2828   1.357       .  S
C2826      F2830   1.358       .  S
C2833      C2834   1.402       .  A
C2833      C2838   1.400       .  A
C2833      F2851   1.358       .  S
C2834      C2839   1.489       .  S
C2834      C2835   1.407   1_545  A
C2835      C2836   1.405       .  A
C2835      F2840   1.358       .  S
C2836      C2837   1.413   1_565  A
C2836      F2852   1.357       .  S
C2837      C2838   1.417       .  A
C2838      F2841   1.358       .  S
C2839      C2842   1.406   1_545  A
C2839      C2846   1.409       .  A
C2842      C2843   1.400       .  A
C2842      F2847   1.358       .  S
C2843      C2844   1.409   1_565  A
C2843      F2849   1.359       .  S
C2844      C2845   1.406       .  A
C2845      C2846   1.401       .  A
C2845      F2848   1.358       .  S
C2846      F2850   1.357       .  S
C2853      C2854   1.405       .  A
C2853      C2858   1.394       .  A
C2853      F2871   1.358       .  S
C2854      C2859   1.474       .  S
C2854      C2855   1.406   1_545  A
C2855      C2856   1.395       .  A
C2855      F2860   1.358       .  S
C2856      C2857   1.404   1_565  A
C2856      F2872   1.359       .  S
C2857      C2858   1.404       .  A
C2858      F2861   1.358       .  S
C2859      C2862   1.405       .  A
C2859      C2866   1.407   1_545  A
C2862      C2863   1.395       .  A
C2862      F2867   1.358       .  S
C2863      C2864   1.403       .  A
C2863      F2869   1.358       .  S
C2864      C2865   1.402   1_545  A
C2865      C2866   1.396       .  A
C2865      F2868   1.358       .  S
C2866      F2870   1.358       .  S
C2873      C2874   1.404       .  A
C2873      C2878   1.406       .  A
C2873      F2891   1.358       .  S
C2874      C2879   1.488       .  S
C2874      C2875   1.402       .  A
C2875      C2876   1.401       .  A
C2875      F2880   1.358       .  S
C2876      C2877   1.416       .  A
C2876      F2892   1.356       .  S
C2877      C2878   1.416       .  A
C2878      F2881   1.357       .  S
C2879      C2882   1.405       .  A
C2879      C2886   1.405       .  A
C2882      C2883   1.402       .  A
C2882      F2887   1.358       .  S
C2883      C2884   1.410       .  A
C2883      F2889   1.358       .  S
C2884      C2885   1.411       .  A
C2885      C2886   1.405       .  A
C2885      F2888   1.358       .  S
C2886      F2890   1.357       .  S
C2893      C2894   1.405       .  A
C2893      C2898   1.399       .  A
C2893      F2911   1.358       .  S
C2894      C2899   1.492       .  S
C2894      C2895   1.411       .  A
C2895      C2896   1.405       .  A
C2895      F2900   1.358       .  S
C2896      C2897   1.407       .  A
C2896      F2912   1.358       .  S
C2897      C2898   1.411       .  A
C2898      F2901   1.358       .  S
C2899      C2902   1.410       .  A
C2899      C2906   1.403       .  A
C2902      C2903   1.409       .  A
C2902      F2907   1.358       .  S
C2903      C2904   1.412       .  A
C2903      F2909   1.357       .  S
C2904      C2905   1.414       .  A
C2905      C2906   1.396       .  A
C2905      F2908   1.358       .  S
C2906      F2910   1.358       .  S
C2913      C2914   1.404       .  A
C2913      C2918   1.393       .  A
C2913      F2931   1.358       .  S
C2914      C2919   1.473       .  S
C2914      C2915   1.403       .  A
C2915      C2916   1.396       .  A
C2915      F2920   1.358       .  S
C2916      C2917   1.409       .  A
C2916      F2932   1.357       .  S
C2917      C2918   1.409       .  A
C2918      F2921   1.359       .  S
C2919      C2922   1.399       .  A
C2919      C2926   1.406       .  A
C2922      C2923   1.390       .  A
C2922      F2927   1.358       .  S
C2923      C2924   1.412       .  A
C2923      F2929   1.357       .  S
C2924      C2925   1.408       .  A
C2925      C2926   1.400       .  A
C2925      F2928   1.357       .  S
C2926      F2930   1.358       .  S
C2933      C2934   1.402       .  A
C2933      C2938   1.399       .  A
C2933      F2951   1.358       .  S
C2934      C2939   1.477       .  S
C2934      C2935   1.403       .  A
C2935      C2936   1.401       .  A
C2935      F2940   1.358       .  S
C2936      C2937   1.410       .  A
C2936      F2952   1.358       .  S
C2937      C2938   1.410       .  A
C2938      F2941   1.358       .  S
C2939      C2942   1.403       .  A
C2939      C2946   1.403       .  A
C2942      C2943   1.401       .  A
C2942      F2947   1.358       .  S
C2943      C2944   1.410       .  A
C2943      F2949   1.358       .  S
C2944      C2945   1.408       .  A
C2945      C2946   1.401       .  A
C2945      F2948   1.358       .  S
C2946      F2950   1.358       .  S
C2953      C2954   1.409       .  A
C2953      C2958   1.405       .  A
C2953      F2971   1.358       .  S
C2954      C2959   1.490       .  S
C2954      C2955   1.406       .  A
C2955      C2956   1.397       .  A
C2955      F2960   1.358       .  S
C2956      C2957   1.411       .  A
C2956      F2972   1.358       .  S
C2957      C2958   1.409       .  A
C2958      F2961   1.357       .  S
C2959      C2962   1.406       .  A
C2959      C2966   1.408       .  A
C2962      C2963   1.397       .  A
C2962      F2967   1.358       .  S
C2963      C2964   1.411       .  A
C2963      F2969   1.358       .  S
C2964      C2965   1.411       .  A
C2965      C2966   1.403       .  A
C2965      F2968   1.357       .  S
C2966      F2970   1.358       .  S
C2973      C2974   1.403   1_565  A
C2973      C2978   1.396       .  A
C2973      F2991   1.358       .  S
C2974      C2979   1.465       .  S
C2974      C2975   1.399       .  A
C2975      C2976   1.390       .  A
C2975      F2980   1.358       .  S
C2976      C2977   1.410       .  A
C2976      F2992   1.358       .  S
C2977      C2978   1.407   1_545  A
C2978      F2981   1.358       .  S
C2979      C2982   1.401   1_545  A
C2979      C2986   1.402       .  A
C2982      C2983   1.395       .  A
C2982      F2987   1.358       .  S
C2983      C2984   1.408   1_565  A
C2983      F2989   1.357       .  S
C2984      C2985   1.406       .  A
C2985      C2986   1.392       .  A
C2985      F2988   1.358       .  S
C2986      F2990   1.358       .  S
C2993      C2994   1.404       .  A
C2993      C2998   1.400       .  A
C2993      F3011   1.358       .  S
C2994      C2999   1.485       .  S
C2994      C2995   1.404   1_545  A
C2995      C2996   1.401       .  A
C2995      F3000   1.358       .  S
C2996      C2997   1.413   1_565  A
C2996      F3012   1.358       .  S
C2997      C2998   1.415       .  A
C2998      F3001   1.358       .  S
C2999      C3002   1.405       .  A
C2999      C3006   1.405   1_545  A
C3002      C3003   1.401       .  A
C3002      F3007   1.358       .  S
C3003      C3004   1.411       .  A
C3003      F3009   1.358       .  S
C3004      C3005   1.411   1_545  A
C3005      C3006   1.402       .  A
C3005      F3008   1.358       .  S
C3006      F3010   1.358       .  S
C3013      C3014   1.404       .  A
C3013      C3018   1.403       .  A
C3013      F3031   1.358       .  S
C3014      C3019   1.480       .  S
C3014      C3015   1.402       .  A
C3015      C3016   1.398       .  A
C3015      F3020   1.358       .  S
C3016      C3017   1.412       .  A
C3016      F3032   1.358       .  S
C3017      C3018   1.411       .  A
C3018      F3021   1.358       .  S
C3019      C3022   1.400       .  A
C3019      C3026   1.403       .  A
C3022      C3023   1.398       .  A
C3022      F3027   1.358       .  S
C3023      C3024   1.415       .  A
C3023      F3029   1.357       .  S
C3024      C3025   1.414       .  A
C3025      C3026   1.404       .  A
C3025      F3028   1.358       .  S
C3026      F3030   1.358       .  S
C3033      C3034   1.404       .  A
C3033      C3038   1.400       .  A
C3033      F3051   1.358   1_545  S
C3034      C3039   1.493       .  S
C3034      C3035   1.409       .  A
C3035      C3036   1.405       .  A
C3035      F3040   1.357       .  S
C3036      C3037   1.410       .  A
C3036      F3052   1.357       .  S
C3037      C3038   1.416       .  A
C3038      F3041   1.358   1_545  S
C3039      C3042   1.409   1_545  A
C3039      C3046   1.405       .  A
C3042      C3043   1.404       .  A
C3042      F3047   1.358       .  S
C3043      C3044   1.409   1_565  A
C3043      F3049   1.358       .  S
C3044      C3045   1.414       .  A
C3045      C3046   1.402       .  A
C3045      F3048   1.358       .  S
C3046      F3050   1.358       .  S
C3053      C3054   1.401   1_565  A
C3053      C3058   1.400       .  A
C3053      F3071   1.357       .  S
C3054      C3059   1.469       .  S
C3054      C3055   1.397       .  A
C3055      C3056   1.392       .  A
C3055      F3060   1.358       .  S
C3056      C3057   1.416       .  A
C3056      F3072   1.358       .  S
C3057      C3058   1.413   1_545  A
C3058      F3061   1.358       .  S
C3059      C3062   1.403   1_545  A
C3059      C3066   1.397       .  A
C3062      C3063   1.401   1_565  A
C3062      F3067   1.357       .  S
C3063      C3064   1.409       .  A
C3063      F3069   1.357   1_545  S
C3064      C3065   1.414       .  A
C3065      C3066   1.392       .  A
C3065      F3068   1.357       .  S
C3066      F3070   1.358       .  S
C3073      C3074   1.402       .  A
C3073      C3078   1.398       .  A
C3073      F3091   1.358       .  S
C3074      C3079   1.472       .  S
C3074      C3075   1.399   1_545  A
C3075      C3076   1.394       .  A
C3075      F3080   1.359       .  S
C3076      C3077   1.416   1_565  A
C3076      F3092   1.357       .  S
C3077      C3078   1.413       .  A
C3078      F3081   1.357       .  S
C3079      C3082   1.401   1_545  A
C3079      C3086   1.402       .  A
C3082      C3083   1.393       .  A
C3082      F3087   1.358       .  S
C3083      C3084   1.412   1_565  A
C3083      F3089   1.358       .  S
C3084      C3085   1.412       .  A
C3085      C3086   1.398       .  A
C3085      F3088   1.357       .  S
C3086      F3090   1.358       .  S
C3093      C3094   1.406       .  A
C3093      C3098   1.402       .  A
C3093      F3111   1.358       .  S
C3094      C3099   1.483       .  S
C3094      C3095   1.403       .  A
C3095      C3096   1.399       .  A
C3095      F3100   1.358       .  S
C3096      C3097   1.413       .  A
C3096      F3112   1.358       .  S
C3097      C3098   1.408       .  A
C3098      F3101   1.358       .  S
C3099      C3102   1.403       .  A
C3099      C3106   1.405       .  A
C3102      C3103   1.400       .  A
C3102      F3107   1.358       .  S
C3103      C3104   1.412       .  A
C3103      F3109   1.358       .  S
C3104      C3105   1.410       .  A
C3105      C3106   1.401       .  A
C3105      F3108   1.358       .  S
C3106      F3110   1.358       .  S
C3113      C3114   1.405       .  A
C3113      C3118   1.399       .  A
C3113      F3131   1.358       .  S
C3114      C3119   1.473       .  S
C3114      C3115   1.400       .  A
C3115      C3116   1.391       .  A
C3115      F3120   1.359       .  S
C3116      C3117   1.411       .  A
C3116      F3132   1.357       .  S
C3117      C3118   1.409       .  A
C3118      F3121   1.358       .  S
C3119      C3122   1.405       .  A
C3119      C3126   1.403       .  A
C3122      C3123   1.399       .  A
C3122      F3127   1.358       .  S
C3123      C3124   1.407       .  A
C3123      F3129   1.357       .  S
C3124      C3125   1.407       .  A
C3125      C3126   1.390       .  A
C3125      F3128   1.359       .  S
C3126      F3130   1.358       .  S
C3133      C3134   1.404       .  A
C3133      C3138   1.404       .  A
C3133      F3151   1.358       .  S
C3134      C3139   1.486       .  S
C3134      C3135   1.403       .  A
C3135      C3136   1.399       .  A
C3135      F3140   1.358       .  S
C3136      C3137   1.414       .  A
C3136      F3152   1.356       .  S
C3137      C3138   1.416       .  A
C3138      F3141   1.358       .  S
C3139      C3142   1.405       .  A
C3139      C3146   1.404       .  A
C3142      C3143   1.402       .  A
C3142      F3147   1.358       .  S
C3143      C3144   1.411       .  A
C3143      F3149   1.357       .  S
C3144      C3145   1.413       .  A
C3145      C3146   1.400       .  A
C3145      F3148   1.358       .  S
C3146      F3150   1.358       .  S
C3153      C3154   1.408   1_565  A
C3153      C3158   1.401       .  A
C3153      F3171   1.358       .  S
C3154      C3159   1.484       .  S
C3154      C3155   1.404       .  A
C3155      C3156   1.396       .  A
C3155      F3160   1.358       .  S
C3156      C3157   1.409       .  A
C3156      F3172   1.358       .  S
C3157      C3158   1.408   1_545  A
C3158      F3161   1.358       .  S
C3159      C3162   1.402   1_545  A
C3159      C3166   1.408       .  A
C3162      C3163   1.396       .  A
C3162      F3167   1.358       .  S
C3163      C3164   1.413   1_565  A
C3163      F3169   1.358       .  S
C3164      C3165   1.411       .  A
C3165      C3166   1.402       .  A
C3165      F3168   1.358       .  S
C3166      F3170   1.358       .  S
C3173      C3174   1.409   1_565  A
C3173      C3178   1.395       .  A
C3173      F3191   1.358       .  S
C3174      C3179   1.481       .  S
C3174      C3175   1.408       .  A
C3175      C3176   1.396       .  A
C3175      F3180   1.358       .  S
C3176      C3177   1.403       .  A
C3176      F3192   1.358       .  S
C3177      C3178   1.401   1_545  A
C3178      F3181   1.358       .  S
C3179      C3182   1.408   1_545  A
C3179      C3186   1.406       .  A
C3182      C3183   1.395       .  A
C3182      F3187   1.358       .  S
C3183      C3184   1.405   1_565  A
C3183      F3189   1.358       .  S
C3184      C3185   1.407       .  A
C3185      C3186   1.398       .  A
C3185      F3188   1.358       .  S
C3186      F3190   1.358       .  S
C3193      C3194   1.403   1_565  A
C3193      C3198   1.398       .  A
C3193      F3211   1.358       .  S
C3194      C3199   1.472       .  S
C3194      C3195   1.403       .  A
C3195      C3196   1.393       .  A
C3195      F3200   1.358       .  S
C3196      C3197   1.406       .  A
C3196      F3212   1.358       .  S
C3197      C3198   1.410   1_545  A
C3198      F3201   1.357       .  S
C3199      C3202   1.404   1_545  A
C3199      C3206   1.401       .  A
C3202      C3203   1.398   1_565  A
C3202      F3207   1.358       .  S
C3203      C3204   1.408       .  A
C3203      F3209   1.358   1_545  S
C3204      C3205   1.410       .  A
C3205      C3206   1.393       .  A
C3205      F3208   1.358       .  S
C3206      F3210   1.358       .  S
C3213      C3214   1.405   1_565  A
C3213      C3218   1.404       .  A
C3213      F3231   1.358       .  S
C3214      C3219   1.496       .  S
C3214      C3215   1.407       .  A
C3215      C3216   1.407       .  A
C3215      F3220   1.358       .  S
C3216      C3217   1.416       .  A
C3216      F3232   1.358       .  S
C3217      C3218   1.416   1_545  A
C3218      F3221   1.358       .  S
C3219      C3222   1.407       .  A
C3219      C3226   1.406       .  A
C3222      C3223   1.406       .  A
C3222      F3227   1.358       .  S
C3223      C3224   1.413       .  A
C3223      F3229   1.358       .  S
C3224      C3225   1.413   1_545  A
C3225      C3226   1.406   1_565  A
C3225      F3228   1.358       .  S
C3226      F3230   1.358   1_545  S
C3233      C3234   1.400       .  A
C3233      C3238   1.396       .  A
C3233      F3251   1.358       .  S
C3234      C3239   1.472       .  S
C3234      C3235   1.403       .  A
C3235      C3236   1.397       .  A
C3235      F3240   1.358       .  S
C3236      C3237   1.410       .  A
C3236      F3252   1.358       .  S
C3237      C3238   1.413       .  A
C3238      F3241   1.358   1_554  S
C3239      C3242   1.403       .  A
C3239      C3246   1.400       .  A
C3242      C3243   1.399       .  A
C3242      F3247   1.358       .  S
C3243      C3244   1.411       .  A
C3243      F3249   1.358       .  S
C3244      C3245   1.412       .  A
C3245      C3246   1.394       .  A
C3245      F3248   1.358       .  S
C3246      F3250   1.358       .  S
C3253      C3254   1.402       .  A
C3253      C3258   1.400       .  A
C3253      F3271   1.358       .  S
C3254      C3259   1.480       .  S
C3254      C3255   1.402       .  A
C3255      C3256   1.401       .  A
C3255      F3260   1.358       .  S
C3256      C3257   1.414       .  A
C3256      F3272   1.358       .  S
C3257      C3258   1.415       .  A
C3258      F3261   1.358       .  S
C3259      C3262   1.400       .  A
C3259      C3266   1.402       .  A
C3262      C3263   1.400       .  A
C3262      F3267   1.358       .  S
C3263      C3264   1.416       .  A
C3263      F3269   1.357       .  S
C3264      C3265   1.416       .  A
C3265      C3266   1.402       .  A
C3265      F3268   1.358       .  S
C3266      F3270   1.358       .  S
C3273      C3274   1.402       .  A
C3273      C3278   1.400       .  A
C3273      F3291   1.358       .  S
C3274      C3279   1.474       .  S
C3274      C3275   1.400       .  A
C3275      C3276   1.398       .  A
C3275      F3280   1.358       .  S
C3276      C3277   1.414       .  A
C3276      F3292   1.358       .  S
C3277      C3278   1.412       .  A
C3278      F3281   1.358       .  S
C3279      C3282   1.398       .  A
C3279      C3286   1.404       .  A
C3282      C3283   1.392       .  A
C3282      F3287   1.359       .  S
C3283      C3284   1.413       .  A
C3283      F3289   1.357       .  S
C3284      C3285   1.413       .  A
C3285      C3286   1.406       .  A
C3285      F3288   1.358       .  S
C3286      F3290   1.358       .  S
C3293      C3294   1.403       .  A
C3293      C3298   1.394       .  A
C3293      F3311   1.358       .  S
C3294      C3299   1.493       .  S
C3294      C3295   1.410       .  A
C3295      C3296   1.411       .  A
C3295      F3300   1.358       .  S
C3296      C3297   1.412       .  A
C3296      F3312   1.357       .  S
C3297      C3298   1.414       .  A
C3298      F3301   1.358       .  S
C3299      C3302   1.410       .  A
C3299      C3306   1.406       .  A
C3302      C3303   1.405       .  A
C3302      F3307   1.358       .  S
C3303      C3304   1.409       .  A
C3303      F3309   1.358       .  S
C3304      C3305   1.411       .  A
C3305      C3306   1.401       .  A
C3305      F3308   1.358       .  S
C3306      F3310   1.358       .  S
C3313      C3314   1.405       .  A
C3313      C3318   1.399   1_554  A
C3313      F3331   1.358       .  S
C3314      C3319   1.478       .  S
C3314      C3315   1.401   1_554  A
C3315      C3316   1.397       .  A
C3315      F3320   1.358       .  S
C3316      C3317   1.414       .  A
C3316      F3332   1.358       .  S
C3317      C3318   1.409       .  A
C3318      F3321   1.357       .  S
C3319      C3322   1.406       .  A
C3319      C3326   1.403       .  A
C3322      C3323   1.400       .  A
C3322      F3327   1.358       .  S
C3323      C3324   1.408       .  A
C3323      F3329   1.358       .  S
C3324      C3325   1.407       .  A
C3325      C3326   1.394       .  A
C3325      F3328   1.358       .  S
C3326      F3330   1.358       .  S
C3333      C3334   1.400       .  A
C3333      C3338   1.396       .  A
C3333      F3351   1.358       .  S
C3334      C3339   1.470       .  S
C3334      C3335   1.403       .  A
C3335      C3336   1.393       .  A
C3335      F3340   1.358       .  S
C3336      C3337   1.409       .  A
C3336      F3352   1.358       .  S
C3337      C3338   1.411       .  A
C3338      F3341   1.357       .  S
C3339      C3342   1.406       .  A
C3339      C3346   1.396       .  A
C3342      C3343   1.403       .  A
C3342      F3347   1.358       .  S
C3343      C3344   1.409       .  A
C3343      F3349   1.357       .  S
C3344      C3345   1.415   1_556  A
C3345      C3346   1.386   1_554  A
C3345      F3348   1.358       .  S
C3346      F3350   1.359       .  S
C3353      C3354   1.403       .  A
C3353      C3358   1.390       .  A
C3353      F3371   1.358       .  S
C3354      C3359   1.463       .  S
C3354      C3355   1.401       .  A
C3355      C3356   1.395       .  A
C3355      F3360   1.358       .  S
C3356      C3357   1.408       .  A
C3356      F3372   1.358       .  S
C3357      C3358   1.403       .  A
C3358      F3361   1.358       .  S
C3359      C3362   1.403       .  A
C3359      C3366   1.400       .  A
C3362      C3363   1.396       .  A
C3362      F3367   1.358       .  S
C3363      C3364   1.407       .  A
C3363      F3369   1.358       .  S
C3364      C3365   1.406       .  A
C3365      C3366   1.391       .  A
C3365      F3368   1.358       .  S
C3366      F3370   1.358       .  S
C3373      C3374   1.407       .  A
C3373      C3378   1.408       .  A
C3373      F3391   1.358       .  S
C3374      C3379   1.487       .  S
C3374      C3375   1.402   1_554  A
C3375      C3376   1.397       .  A
C3375      F3380   1.358       .  S
C3376      C3377   1.415   1_556  A
C3376      F3392   1.358       .  S
C3377      C3378   1.413       .  A
C3378      F3381   1.357       .  S
C3379      C3382   1.401       .  A
C3379      C3386   1.408       .  A
C3382      C3383   1.397   1_554  A
C3382      F3387   1.358   1_554  S
C3383      C3384   1.414   1_556  A
C3383      F3389   1.358       .  S
C3384      C3385   1.411       .  A
C3385      C3386   1.408       .  A
C3385      F3388   1.357       .  S
C3386      F3390   1.357       .  S
C3393      C3394   1.400       .  A
C3393      C3398   1.395       .  A
C3393      F3411   1.358       .  S
C3394      C3399   1.456       .  S
C3394      C3395   1.396       .  A
C3395      C3396   1.387       .  A
C3395      F3400   1.358       .  S
C3396      C3397   1.411       .  A
C3396      F3412   1.359       .  S
C3397      C3398   1.409       .  A
C3398      F3401   1.358       .  S
C3399      C3402   1.403       .  A
C3399      C3406   1.395       .  A
C3402      C3403   1.396       .  A
C3402      F3407   1.358       .  S
C3403      C3404   1.405       .  A
C3403      F3409   1.358       .  S
C3404      C3405   1.408       .  A
C3405      C3406   1.388       .  A
C3405      F3408   1.357       .  S
C3406      F3410   1.358       .  S
C3413      C3414   1.406       .  A
C3413      C3418   1.406       .  A
C3413      F3431   1.358       .  S
C3414      C3419   1.495       .  S
C3414      C3415   1.405       .  A
C3415      C3416   1.404       .  A
C3415      F3420   1.358       .  S
C3416      C3417   1.414       .  A
C3416      F3432   1.357       .  S
C3417      C3418   1.415       .  A
C3418      F3421   1.358       .  S
C3419      C3422   1.403       .  A
C3419      C3426   1.406       .  A
C3422      C3423   1.403       .  A
C3422      F3427   1.358       .  S
C3423      C3424   1.416       .  A
C3423      F3429   1.356       .  S
C3424      C3425   1.417       .  A
C3425      C3426   1.409       .  A
C3425      F3428   1.357       .  S
C3426      F3430   1.358       .  S
C3433      C3434   1.408       .  A
C3433      C3438   1.406       .  A
C3433      F3451   1.358       .  S
C3434      C3439   1.491       .  S
C3434      C3435   1.405       .  A
C3435      C3436   1.398       .  A
C3435      F3440   1.358       .  S
C3436      C3437   1.414       .  A
C3436      F3452   1.358       .  S
C3437      C3438   1.412       .  A
C3438      F3441   1.357       .  S
C3439      C3442   1.405       .  A
C3439      C3446   1.409       .  A
C3442      C3443   1.398       .  A
C3442      F3447   1.358       .  S
C3443      C3444   1.412       .  A
C3443      F3449   1.358       .  S
C3444      C3445   1.409       .  A
C3445      C3446   1.404       .  A
C3445      F3448   1.357       .  S
C3446      F3450   1.358       .  S
C3453      C3454   1.410       .  A
C3453      C3458   1.407   1_455  A
C3453      F3471   1.358       .  S
C3454      C3459   1.493       .  S
C3454      C3455   1.403       .  A
C3455      C3456   1.399       .  A
C3455      F3460   1.358       .  S
C3456      C3457   1.415       .  A
C3456      F3472   1.358       .  S
C3457      C3458   1.411   1_455  A
C3458      F3461   1.358       .  S
C3459      C3462   1.405       .  A
C3459      C3466   1.410       .  A
C3462      C3463   1.402       .  A
C3462      F3467   1.358       .  S
C3463      C3464   1.413       .  A
C3463      F3469   1.358       .  S
C3464      C3465   1.408       .  A
C3465      C3466   1.404       .  A
C3465      F3468   1.358       .  S
C3466      F3470   1.358       .  S
C3473      C3474   1.400       .  A
C3473      C3478   1.393   1_655  A
C3473      F3491   1.358       .  S
C3474      C3479   1.469       .  S
C3474      C3475   1.402       .  A
C3475      C3476   1.401   1_655  A
C3475      F3480   1.358       .  S
C3476      C3477   1.410       .  A
C3476      F3492   1.357       .  S
C3477      C3478   1.410       .  A
C3478      F3481   1.358       .  S
C3479      C3482   1.403       .  A
C3479      C3486   1.400       .  A
C3482      C3483   1.399       .  A
C3482      F3487   1.358       .  S
C3483      C3484   1.409       .  A
C3483      F3489   1.358       .  S
C3484      C3485   1.407       .  A
C3485      C3486   1.393       .  A
C3485      F3488   1.358       .  S
C3486      F3490   1.358       .  S
C3493      C3494   1.402       .  A
C3493      C3498   1.394       .  A
C3493      F3511   1.358       .  S
C3494      C3499   1.472       .  S
C3494      C3495   1.403       .  A
C3495      C3496   1.399       .  A
C3495      F3500   1.358       .  S
C3496      C3497   1.409       .  A
C3496      F3512   1.357       .  S
C3497      C3498   1.410       .  A
C3498      F3501   1.358       .  S
C3499      C3502   1.400       .  A
C3499      C3506   1.405       .  A
C3502      C3503   1.391       .  A
C3502      F3507   1.359       .  S
C3503      C3504   1.411       .  A
C3503      F3509   1.358       .  S
C3504      C3505   1.407       .  A
C3505      C3506   1.400       .  A
C3505      F3508   1.358       .  S
C3506      F3510   1.357       .  S
C3513      C3514   1.402       .  A
C3513      C3518   1.398       .  A
C3513      F3531   1.358       .  S
C3514      C3519   1.476       .  S
C3514      C3515   1.402       .  A
C3515      C3516   1.399       .  A
C3515      F3520   1.358       .  S
C3516      C3517   1.414       .  A
C3516      F3532   1.358       .  S
C3517      C3518   1.412       .  A
C3518      F3521   1.358       .  S
C3519      C3522   1.404       .  A
C3519      C3526   1.402       .  A
C3522      C3523   1.399       .  A
C3522      F3527   1.358       .  S
C3523      C3524   1.410       .  A
C3523      F3529   1.358       .  S
C3524      C3525   1.411       .  A
C3525      C3526   1.398       .  A
C3525      F3528   1.358       .  S
C3526      F3530   1.358       .  S
C3533      C3534   1.404       .  A
C3533      C3538   1.399       .  A
C3533      F3551   1.358       .  S
C3534      C3539   1.489       .  S
C3534      C3535   1.409       .  A
C3535      C3536   1.405       .  A
C3535      F3540   1.358       .  S
C3536      C3537   1.408       .  A
C3536      F3552   1.357       .  S
C3537      C3538   1.410       .  A
C3538      F3541   1.358       .  S
C3539      C3542   1.408       .  A
C3539      C3546   1.402       .  A
C3542      C3543   1.408       .  A
C3542      F3547   1.357       .  S
C3543      C3544   1.412       .  A
C3543      F3549   1.357       .  S
C3544      C3545   1.416       .  A
C3545      C3546   1.395       .  A
C3545      F3548   1.358       .  S
C3546      F3550   1.358       .  S
C3553      C3554   1.405       .  A
C3553      C3558   1.400       .  A
C3553      F3571   1.358       .  S
C3554      C3559   1.489       .  S
C3554      C3555   1.409       .  A
C3555      C3556   1.403   1_455  A
C3555      F3560   1.358   1_455  S
C3556      C3557   1.407   1_655  A
C3556      F3572   1.358       .  S
C3557      C3558   1.410       .  A
C3558      F3561   1.358       .  S
C3559      C3562   1.408       .  A
C3559      C3566   1.404       .  A
C3562      C3563   1.402       .  A
C3562      F3567   1.358       .  S
C3563      C3564   1.410       .  A
C3563      F3569   1.358       .  S
C3564      C3565   1.413       .  A
C3565      C3566   1.399       .  A
C3565      F3568   1.358       .  S
C3566      F3570   1.358       .  S
C3573      C3574   1.403   1_455  A
C3573      C3578   1.398       .  A
C3573      F3591   1.358       .  S
C3574      C3579   1.472       .  S
C3574      C3575   1.400       .  A
C3575      C3576   1.392   1_655  A
C3575      F3580   1.358       .  S
C3576      C3577   1.413       .  A
C3576      F3592   1.358       .  S
C3577      C3578   1.413       .  A
C3578      F3581   1.358       .  S
C3579      C3582   1.402       .  A
C3579      C3586   1.402       .  A
C3582      C3583   1.393       .  A
C3582      F3587   1.358       .  S
C3583      C3584   1.411       .  A
C3583      F3589   1.358       .  S
C3584      C3585   1.412       .  A
C3585      C3586   1.398       .  A
C3585      F3588   1.356       .  S
C3586      F3590   1.358       .  S
C3593      C3594   1.402       .  A
C3593      C3598   1.399       .  A
C3593      F3611   1.358       .  S
C3594      C3599   1.481       .  S
C3594      C3595   1.403       .  A
C3595      C3596   1.401       .  A
C3595      F3600   1.358       .  S
C3596      C3597   1.415       .  A
C3596      F3612   1.358       .  S
C3597      C3598   1.415       .  A
C3598      F3601   1.358       .  S
C3599      C3602   1.403       .  A
C3599      C3606   1.403       .  A
C3602      C3603   1.400       .  A
C3602      F3607   1.358       .  S
C3603      C3604   1.415       .  A
C3603      F3609   1.358       .  S
C3604      C3605   1.412       .  A
C3605      C3606   1.399       .  A
C3605      F3608   1.358       .  S
C3606      F3610   1.358       .  S
C3613      C3614   1.405       .  A
C3613      C3618   1.403       .  A
C3613      F3631   1.358       .  S
C3614      C3619   1.488       .  S
C3614      C3615   1.404       .  A
C3615      C3616   1.398       .  A
C3615      F3620   1.358       .  S
C3616      C3617   1.413       .  A
C3616      F3632   1.357       .  S
C3617      C3618   1.416       .  A
C3618      F3621   1.357       .  S
C3619      C3622   1.406       .  A
C3619      C3626   1.404       .  A
C3622      C3623   1.405       .  A
C3622      F3627   1.358       .  S
C3623      C3624   1.415       .  A
C3623      F3629   1.358       .  S
C3624      C3625   1.411       .  A
C3625      C3626   1.397       .  A
C3625      F3628   1.357       .  S
C3626      F3630   1.358       .  S
C3633      C3634   1.401       .  A
C3633      C3638   1.396       .  A
C3633      F3651   1.358       .  S
C3634      C3639   1.480       .  S
C3634      C3635   1.407       .  A
C3635      C3636   1.406       .  A
C3635      F3640   1.357       .  S
C3636      C3637   1.409       .  A
C3636      F3652   1.357       .  S
C3637      C3638   1.411       .  A
C3638      F3641   1.358       .  S
C3639      C3642   1.401       .  A
C3639      C3646   1.404       .  A
C3642      C3643   1.397       .  A
C3642      F3647   1.358       .  S
C3643      C3644   1.416       .  A
C3643      F3649   1.358       .  S
C3644      C3645   1.413       .  A
C3645      C3646   1.404       .  A
C3645      F3648   1.357       .  S
C3646      F3650   1.357   1_554  S
C3653      C3654   1.405       .  A
C3653      C3658   1.400       .  A
C3653      F3671   1.358       .  S
C3654      C3659   1.480       .  S
C3654      C3655   1.402       .  A
C3655      C3656   1.395       .  A
C3655      F3660   1.358       .  S
C3656      C3657   1.414       .  A
C3656      F3672   1.358       .  S
C3657      C3658   1.412       .  A
C3658      F3661   1.358       .  S
C3659      C3662   1.405       .  A
C3659      C3666   1.406       .  A
C3662      C3663   1.399       .  A
C3662      F3667   1.358       .  S
C3663      C3664   1.407       .  A
C3663      F3669   1.358       .  S
C3664      C3665   1.406       .  A
C3665      C3666   1.397       .  A
C3665      F3668   1.358       .  S
C3666      F3670   1.358       .  S
C3673      C3674   1.405       .  A
C3673      C3678   1.398       .  A
C3673      F3691   1.358       .  S
C3674      C3679   1.469       .  S
C3674      C3675   1.400       .  A
C3675      C3676   1.388       .  A
C3675      F3680   1.359       .  S
C3676      C3677   1.411       .  A
C3676      F3692   1.358       .  S
C3677      C3678   1.408       .  A
C3678      F3681   1.357       .  S
C3679      C3682   1.403       .  A
C3679      C3686   1.399       .  A
C3682      C3683   1.397       .  A
C3682      F3687   1.358       .  S
C3683      C3684   1.410       .  A
C3683      F3689   1.358       .  S
C3684      C3685   1.413       .  A
C3685      C3686   1.389       .  A
C3685      F3688   1.357       .  S
C3686      F3690   1.359       .  S
C3693      C3694   1.404       .  A
C3693      C3698   1.397       .  A
C3693      F3711   1.358       .  S
C3694      C3699   1.464       .  S
C3694      C3695   1.398       .  A
C3695      C3696   1.391       .  A
C3695      F3700   1.358       .  S
C3696      C3697   1.408       .  A
C3696      F3712   1.358       .  S
C3697      C3698   1.405       .  A
C3698      F3701   1.358       .  S
C3699      C3702   1.397       .  A
C3699      C3706   1.400       .  A
C3702      C3703   1.390       .  A
C3702      F3707   1.358       .  S
C3703      C3704   1.415       .  A
C3703      F3709   1.358       .  S
C3704      C3705   1.413       .  A
C3705      C3706   1.397       .  A
C3705      F3708   1.358       .  S
C3706      F3710   1.358       .  S
C3713      C3714   1.408       .  A
C3713      C3718   1.403       .  A
C3713      F3731   1.358       .  S
C3714      C3719   1.488       .  S
C3714      C3715   1.404       .  A
C3715      C3716   1.398       .  A
C3715      F3720   1.358       .  S
C3716      C3717   1.413       .  A
C3716      F3732   1.358       .  S
C3717      C3718   1.408       .  A
C3718      F3721   1.357       .  S
C3719      C3722   1.409       .  A
C3719      C3726   1.405       .  A
C3722      C3723   1.406       .  A
C3722      F3727   1.358       .  S
C3723      C3724   1.410       .  A
C3723      F3729   1.357       .  S
C3724      C3725   1.410       .  A
C3725      C3726   1.395       .  A
C3725      F3728   1.358       .  S
C3726      F3730   1.358       .  S
C3733      C3734   1.409       .  A
C3733      C3738   1.405       .  A
C3733      F3751   1.358       .  S
C3734      C3739   1.490       .  S
C3734      C3735   1.403       .  A
C3735      C3736   1.398       .  A
C3735      F3740   1.358       .  S
C3736      C3737   1.412       .  A
C3736      F3752   1.358       .  S
C3737      C3738   1.409       .  A
C3738      F3741   1.358       .  S
C3739      C3742   1.404   1_554  A
C3739      C3746   1.408   1_554  A
C3742      C3743   1.401       .  A
C3742      F3747   1.358       .  S
C3743      C3744   1.414       .  A
C3743      F3749   1.358       .  S
C3744      C3745   1.410       .  A
C3745      C3746   1.404       .  A
C3745      F3748   1.358       .  S
C3746      F3750   1.358   1_556  S
C3753      C3754   1.402       .  A
C3753      C3758   1.396       .  A
C3753      F3771   1.358       .  S
C3754      C3759   1.468       .  S
C3754      C3755   1.400       .  A
C3755      C3756   1.394       .  A
C3755      F3760   1.359       .  S
C3756      C3757   1.412       .  A
C3756      F3772   1.358       .  S
C3757      C3758   1.409       .  A
C3758      F3761   1.357       .  S
C3759      C3762   1.399       .  A
C3759      C3766   1.401       .  A
C3762      C3763   1.392       .  A
C3762      F3767   1.358       .  S
C3763      C3764   1.415       .  A
C3763      F3769   1.358       .  S
C3764      C3765   1.410       .  A
C3765      C3766   1.396       .  A
C3765      F3768   1.358       .  S
C3766      F3770   1.358       .  S
C3773      C3774   1.402       .  A
C3773      C3778   1.401       .  A
C3773      F3791   1.358       .  S
C3774      C3779   1.471       .  S
C3774      C3775   1.398       .  A
C3775      C3776   1.391       .  A
C3775      F3780   1.359       .  S
C3776      C3777   1.417       .  A
C3776      F3792   1.358       .  S
C3777      C3778   1.413       .  A
C3778      F3781   1.357       .  S
C3779      C3782   1.401       .  A
C3779      C3786   1.399       .  A
C3782      C3783   1.399       .  A
C3782      F3787   1.358       .  S
C3783      C3784   1.414       .  A
C3783      F3789   1.357       .  S
C3784      C3785   1.414       .  A
C3785      C3786   1.392       .  A
C3785      F3788   1.358       .  S
C3786      F3790   1.358       .  S
C3793      C3794   1.404       .  A
C3793      C3798   1.399       .  A
C3793      F3811   1.358       .  S
C3794      C3799   1.488       .  S
C3794      C3795   1.407       .  A
C3795      C3796   1.401       .  A
C3795      F3800   1.358       .  S
C3796      C3797   1.410       .  A
C3796      F3812   1.357       .  S
C3797      C3798   1.414       .  A
C3798      F3801   1.358       .  S
C3799      C3802   1.405       .  A
C3799      C3806   1.405       .  A
C3802      C3803   1.401       .  A
C3802      F3807   1.358       .  S
C3803      C3804   1.415       .  A
C3803      F3809   1.358       .  S
C3804      C3805   1.413       .  A
C3805      C3806   1.400       .  A
C3805      F3808   1.357       .  S
C3806      F3810   1.358       .  S
C3813      C3814   1.408       .  A
C3813      C3818   1.405       .  A
C3813      F3831   1.358       .  S
C3814      C3819   1.486       .  S
C3814      C3815   1.404       .  A
C3815      C3816   1.393       .  A
C3815      F3820   1.358       .  S
C3816      C3817   1.409       .  A
C3816      F3832   1.358       .  S
C3817      C3818   1.411       .  A
C3818      F3821   1.358       .  S
C3819      C3822   1.408       .  A
C3819      C3826   1.406       .  A
C3822      C3823   1.401       .  A
C3822      F3827   1.358       .  S
C3823      C3824   1.406       .  A
C3823      F3829   1.357       .  S
C3824      C3825   1.409       .  A
C3825      C3826   1.397       .  A
C3825      F3828   1.358       .  S
C3826      F3830   1.358       .  S
C3833      C3834   1.404       .  A
C3833      C3838   1.401       .  A
C3833      F3851   1.358       .  S
C3834      C3839   1.489       .  S
C3834      C3835   1.407       .  A
C3835      C3836   1.404       .  A
C3835      F3840   1.358       .  S
C3836      C3837   1.412       .  A
C3836      F3852   1.357       .  S
C3837      C3838   1.414       .  A
C3838      F3841   1.358       .  S
C3839      C3842   1.408       .  A
C3839      C3846   1.405       .  A
C3842      C3843   1.402       .  A
C3842      F3847   1.358       .  S
C3843      C3844   1.409       .  A
C3843      F3849   1.358       .  S
C3844      C3845   1.410       .  A
C3845      C3846   1.399       .  A
C3845      F3848   1.358       .  S
C3846      F3850   1.358       .  S
C3853      C3854   1.399       .  A
C3853      C3858   1.390       .  A
C3853      F3871   1.358       .  S
C3854      C3859   1.464       .  S
C3854      C3855   1.404       .  A
C3855      C3856   1.396       .  A
C3855      F3860   1.358       .  S
C3856      C3857   1.407       .  A
C3856      F3872   1.358       .  S
C3857      C3858   1.407       .  A
C3858      F3861   1.358       .  S
C3859      C3862   1.400       .  A
C3859      C3866   1.403       .  A
C3862      C3863   1.393       .  A
C3862      F3867   1.358       .  S
C3863      C3864   1.409       .  A
C3863      F3869   1.358       .  S
C3864      C3865   1.406       .  A
C3865      C3866   1.392       .  A
C3865      F3868   1.358       .  S
C3866      F3870   1.358       .  S
C3873      C3874   1.402       .  A
C3873      C3878   1.388       .  A
C3873      F3891   1.358       .  S
C3874      C3879   1.472       .  S
C3874      C3875   1.404       .  A
C3875      C3876   1.399       .  A
C3875      F3880   1.358       .  S
C3876      C3877   1.412       .  A
C3876      F3892   1.358       .  S
C3877      C3878   1.408       .  A
C3878      F3881   1.358       .  S
C3879      C3882   1.399       .  A
C3879      C3886   1.404       .  A
C3882      C3883   1.388       .  A
C3882      F3887   1.359       .  S
C3883      C3884   1.414       .  A
C3883      F3889   1.358       .  S
C3884      C3885   1.412       .  A
C3885      C3886   1.400       .  A
C3885      F3888   1.357       .  S
C3886      F3890   1.358       .  S
C3893      C3894   1.405       .  A
C3893      C3898   1.399       .  A
C3893      F3911   1.358       .  S
C3894      C3899   1.481       .  S
C3894      C3895   1.403       .  A
C3895      C3896   1.396       .  A
C3895      F3900   1.358       .  S
C3896      C3897   1.412       .  A
C3896      F3912   1.358       .  S
C3897      C3898   1.411       .  A
C3898      F3901   1.358       .  S
C3899      C3902   1.404       .  A
C3899      C3906   1.404       .  A
C3902      C3903   1.398       .  A
C3902      F3907   1.358       .  S
C3903      C3904   1.412       .  A
C3903      F3909   1.358       .  S
C3904      C3905   1.411       .  A
C3905      C3906   1.397       .  A
C3905      F3908   1.358       .  S
C3906      F3910   1.358       .  S
C3913      C3914   1.410       .  A
C3913      C3918   1.403       .  A
C3913      F3931   1.358       .  S
C3914      C3919   1.489       .  S
C3914      C3915   1.406       .  A
C3915      C3916   1.396       .  A
C3915      F3920   1.358       .  S
C3916      C3917   1.408       .  A
C3916      F3932   1.358       .  S
C3917      C3918   1.408       .  A
C3918      F3921   1.357       .  S
C3919      C3922   1.409       .  A
C3919      C3926   1.407       .  A
C3922      C3923   1.401       .  A
C3922      F3927   1.358       .  S
C3923      C3924   1.407       .  A
C3923      F3929   1.357       .  S
C3924      C3925   1.409       .  A
C3925      C3926   1.397       .  A
C3925      F3928   1.358       .  S
C3926      F3930   1.358       .  S
C3933      C3934   1.407       .  A
C3933      C3938   1.403       .  A
C3933      F3951   1.358       .  S
C3934      C3939   1.480       .  S
C3934      C3935   1.400       .  A
C3935      C3936   1.394       .  A
C3935      F3940   1.358       .  S
C3936      C3937   1.414       .  A
C3936      F3952   1.358       .  S
C3937      C3938   1.409       .  A
C3938      F3941   1.358       .  S
C3939      C3942   1.407       .  A
C3939      C3946   1.404       .  A
C3942      C3943   1.400       .  A
C3942      F3947   1.358       .  S
C3943      C3944   1.407       .  A
C3943      F3949   1.358       .  S
C3944      C3945   1.407       .  A
C3945      C3946   1.397       .  A
C3945      F3948   1.358       .  S
C3946      F3950   1.358       .  S
C3953      C3954   1.399       .  A
C3953      C3958   1.398       .  A
C3953      F3971   1.358       .  S
C3954      C3959   1.468       .  S
C3954      C3955   1.400       .  A
C3955      C3956   1.395       .  A
C3955      F3960   1.358       .  S
C3956      C3957   1.410       .  A
C3956      F3972   1.358       .  S
C3957      C3958   1.414       .  A
C3958      F3961   1.357       .  S
C3959      C3962   1.401       .  A
C3959      C3966   1.402       .  A
C3962      C3963   1.396       .  A
C3962      F3967   1.358       .  S
C3963      C3964   1.410       .  A
C3963      F3969   1.358       .  S
C3964      C3965   1.407       .  A
C3965      C3966   1.397       .  A
C3965      F3968   1.358       .  S
C3966      F3970   1.358       .  S
C3973      C3974   1.404       .  A
C3973      C3978   1.397       .  A
C3973      F3991   1.358       .  S
C3974      C3979   1.468       .  S
C3974      C3975   1.399       .  A
C3975      C3976   1.390       .  A
C3975      F3980   1.359       .  S
C3976      C3977   1.412       .  A
C3976      F3992   1.357       .  S
C3977      C3978   1.409       .  A
C3978      F3981   1.358       .  S
C3979      C3982   1.403       .  A
C3979      C3986   1.402       .  A
C3982      C3983   1.396       .  A
C3982      F3987   1.358       .  S
C3983      C3984   1.408       .  A
C3983      F3989   1.357       .  S
C3984      C3985   1.407       .  A
C3985      C3986   1.390       .  A
C3985      F3988   1.358       .  S
C3986      F3990   1.358       .  S
C3993      C3994   1.403       .  A
C3993      C3998   1.402       .  A
C3993      F4011   1.358       .  S
C3994      C3999   1.481       .  S
C3994      C3995   1.402       .  A
C3995      C3996   1.400       .  A
C3995      F4000   1.358       .  S
C3996      C3997   1.412       .  A
C3996      F4012   1.358       .  S
C3997      C3998   1.412       .  A
C3998      F4001   1.358       .  S
C3999      C4002   1.401       .  A
C3999      C4006   1.402       .  A
C4002      C4003   1.400       .  A
C4002      F4007   1.358       .  S
C4003      C4004   1.417       .  A
C4003      F4009   1.358       .  S
C4004      C4005   1.414       .  A
C4005      C4006   1.401       .  A
C4005      F4008   1.357       .  S
C4006      F4010   1.358       .  S
C4013      C4014   1.404       .  A
C4013      C4018   1.403       .  A
C4013      F4031   1.358       .  S
C4014      C4019   1.481       .  S
C4014      C4015   1.400       .  A
C4015      C4016   1.395       .  A
C4015      F4020   1.358       .  S
C4016      C4017   1.416       .  A
C4016      F4032   1.356       .  S
C4017      C4018   1.414       .  A
C4018      F4021   1.358       .  S
C4019      C4022   1.404       .  A
C4019      C4026   1.402       .  A
C4022      C4023   1.400       .  A
C4022      F4027   1.358       .  S
C4023      C4024   1.411       .  A
C4023      F4029   1.357       .  S
C4024      C4025   1.415       .  A
C4025      C4026   1.400       .  A
C4025      F4028   1.357       .  S
C4026      F4030   1.358       .  S
