geometry optimzed in LAMMPS
_audit_creation_date              2020-12-01 
_audit_creation_method            'lammps2cif' 
_symmetry_space_group_name_H-M    'P1' 
_symmetry_Int_Tables_number       1 
_symmetry_cell_setting            triclinic 
loop_ 
_symmetry_equiv_pos_as_xyz 
  x,y,z 
_cell_length_a                    26.53068634 
_cell_length_b                    29.49044837591671 
_cell_length_c                    48.64756941615727 
_cell_angle_alpha                 90.09949207510402 
_cell_angle_beta                  89.98154789357142 
_cell_angle_gamma                 89.9167416482404 
loop_ 
_atom_site_label 
_atom_site_type_symbol 
_atom_site_fract_x 
_atom_site_fract_y 
_atom_site_fract_z 
_atom_site_charge 
Fe1        Fe  0.08824468  0.17036264  0.89036656     1.65800
Fe2        Fe  0.19456621  0.22925840  0.87918014     1.73200
Fe3        Fe  0.12861119  0.24498687  0.93757043     1.54400
O4          O  0.05839716  0.26710132  0.92685109    -0.82000
O5          O  0.24406210  0.23714407  0.91285745    -0.80300
O6          O  0.02742297  0.20291254  0.91007572    -0.84500
O7          O  0.10069027  0.13282961  0.92419662    -0.79400
O8          O  0.15935413  0.30701968  0.92328981    -0.81200
O9          O  0.21556429  0.16278808  0.87894301    -0.83900
C10         C  0.09566096  0.14450837  0.94901608     0.96900
C11         C  0.02154430  0.24102002  0.92215302     1.04300
O12         O  0.13709965  0.21521144  0.90234032    -1.12900
O13         O  0.15179879  0.22376262  0.84255692    -0.75300
O14         O  0.07352062  0.20677586  0.85578058    -0.78800
O15         O  0.09809734  0.18604249  0.95670290    -0.79500
C16         C  0.10433582  0.22138648  0.83803912     0.95800
O17         O  0.14250000  0.12886337  0.87088834    -0.77500
O18         O  0.17798519  0.29676305  0.87923163    -0.82600
C19         C  0.24023223  0.22943899  0.93864558     0.98400
C20         C  0.17418366  0.32237431  0.90006161     1.04300
O21         O  0.19796362  0.22456523  0.95030560    -0.78300
C22         C  0.19018772  0.12735732  0.87433296     1.02600
Fe23       Fe  0.95240888  0.85074162  0.09726184     1.65800
Fe24       Fe  0.84142606  0.80517438  0.11477680     1.73200
Fe25       Fe  0.89545701  0.77873528  0.05454377     1.54400
O26         O  0.93426476  0.83091267  0.03242356    -0.82000
O27         O  0.85064214  0.73639548  0.11670100    -0.80300
O28         O  0.94158809  0.88713553  0.06257409    -0.84500
O29         O  0.00486006  0.80846065  0.07706861    -0.79400
O30         O  0.82903725  0.80847686  0.04403046    -0.81200
O31         O  0.88916722  0.81209969  0.14994909    -0.83900
C32         C  0.00281857  0.76891396  0.06634178     0.96900
C33         C  0.94535435  0.87204709  0.03845424     1.04300
O34         O  0.89648307  0.81129609  0.08893569    -1.12900
O35         O  0.82857995  0.87311726  0.11249837    -0.75300
O36         O  0.90646171  0.89958716  0.11646367    -0.78800
O37         O  0.96162867  0.74767393  0.06424784    -0.79500
C38         C  0.85901826  0.90597245  0.11439901     0.95800
O39         O  0.96617855  0.81630084  0.13265922    -0.77500
O40         O  0.78713705  0.79757216  0.08309565    -0.82600
C41         C  0.84612053  0.70982962  0.09629298     0.98400
C42         C  0.78800990  0.80432675  0.05710789     1.04300
O43         O  0.85675086  0.72254977  0.07178884    -0.78300
C44         C  0.93722847  0.81173196  0.15303520     1.02600
Fe45       Fe  0.44236557  0.67091121  0.89485866     1.65800
Fe46       Fe  0.33937190  0.72954033  0.87866634     1.73200
Fe47       Fe  0.39552163  0.74350408  0.94011875     1.54400
O48         O  0.43104865  0.68702829  0.95953299    -0.82000
O49         O  0.35649662  0.79739423  0.88025930    -0.80300
O50         O  0.42110339  0.63450701  0.92788954    -0.84500
O51         O  0.49948247  0.70621131  0.91649313    -0.79400
O52         O  0.32708505  0.71681298  0.94912173    -0.81200
O53         O  0.38726117  0.72245743  0.84371191    -0.83900
C54         C  0.50306629  0.74549161  0.92761740     0.96900
C55         C  0.43528289  0.64600349  0.95142826     1.04300
O56         O  0.39297474  0.71573839  0.90407547    -1.12900
O57         O  0.31814051  0.66278460  0.87721710    -0.75300
O58         O  0.39224772  0.62899427  0.87327951    -0.78800
O59         O  0.46457141  0.77000812  0.93180930    -0.79500
C60         C  0.34430190  0.62717752  0.87409766     0.95800
O61         O  0.46277531  0.70590946  0.86093940    -0.77500
O62         O  0.28629675  0.73688978  0.91080022    -0.82600
C63         C  0.35421177  0.82123506  0.90198831     0.98400
C64         C  0.28673738  0.72429106  0.93599213     1.04300
O65         O  0.36164783  0.80414622  0.92583397    -0.78300
C66         C  0.43483933  0.71597151  0.84084448     1.02600
Fe67       Fe  0.58651512  0.35415124  0.10426867     1.65800
Fe68       Fe  0.69646430  0.30184308  0.11589344     1.73200
Fe69       Fe  0.63378363  0.28399322  0.05677131     1.54400
O70         O  0.56555034  0.25669701  0.06652540    -0.82000
O71         O  0.74738273  0.29661985  0.08223545    -0.80300
O72         O  0.52946925  0.31894812  0.08284250    -0.84500
O73         O  0.59896142  0.39397942  0.07121015    -0.79400
O74         O  0.66980010  0.22402694  0.07006409    -0.81200
O75         O  0.71249580  0.36990201  0.11716207    -0.83900
C76         C  0.59345251  0.38199293  0.04649903     0.96900
C77         C  0.52676538  0.28094201  0.07024798     1.04300
O78         O  0.63890381  0.31283460  0.09242997    -1.12900
O79         O  0.65184455  0.30460991  0.15236610    -0.75300
O80         O  0.57278031  0.31582178  0.13826480    -0.78800
O81         O  0.59833665  0.34085106  0.03861961    -0.79500
C82         C  0.60408471  0.30450881  0.15669597     0.95800
O83         O  0.63607900  0.39714384  0.12557415    -0.77500
O84         O  0.68414083  0.23348370  0.11477389    -0.82600
C85         C  0.74340860  0.30459308  0.05642427     0.98400
C86         C  0.68419351  0.20883091  0.09337286     1.04300
O87         O  0.70104519  0.31003122  0.04502140    -0.78300
C88         C  0.68351390  0.40271905  0.12294141     1.02600
Fe89       Fe  0.94275493  0.16790213  0.60604978     1.65800
Fe90       Fe  0.83210390  0.21809452  0.61919685     1.73200
Fe91       Fe  0.88820002  0.23328143  0.55793928     1.54400
O92         O  0.95814423  0.26053295  0.56360616    -0.82000
O93         O  0.77797098  0.22317154  0.58766610    -0.80300
O94         O  0.99775114  0.20303513  0.58345085    -0.84500
O95         O  0.93094190  0.12580686  0.57380900    -0.79400
O96         O  0.85607406  0.29463486  0.57229574    -0.81200
O97         O  0.81780433  0.15023801  0.62087849    -0.83900
C98         C  0.92775466  0.13459340  0.54842760     0.96900
C99         C  0.99813489  0.23851092  0.56852545     1.04300
O100        O  0.88798651  0.20691165  0.59434799    -1.12900
O101        O  0.87799474  0.21614446  0.65456340    -0.75300
O102        O  0.95661152  0.20876851  0.63919788    -0.78800
O103        O  0.91881653  0.17449991  0.53944421    -0.79500
C104        C  0.92559861  0.21925482  0.65798580     0.95800
O105        O  0.89515275  0.12485383  0.62862693    -0.77500
O106        O  0.84400048  0.28613658  0.61743346    -0.82600
C107        C  0.77826223  0.21481746  0.56195511     0.98400
C108        C  0.84415636  0.31048579  0.59596568     1.04300
O109        O  0.81891970  0.20751900  0.54915729    -0.78300
C110        C  0.84785047  0.11810833  0.62646205     1.02600
Fe111      Fe  0.08072426  0.85729688  0.39798673     1.65800
Fe112      Fe  0.18887870  0.80347346  0.38241850     1.73200
Fe113      Fe  0.12334351  0.77495269  0.43908899     1.54400
O114        O  0.08522493  0.82580413  0.46143863    -0.82000
O115        O  0.17623709  0.73514179  0.37857744    -0.80300
O116        O  0.09254307  0.88667768  0.43513400    -0.84500
O117        O  0.02180564  0.81680954  0.41380869    -0.79400
O118        O  0.19012954  0.79833625  0.45390728    -0.81200
O119        O  0.14551906  0.81287623  0.34617315    -0.83900
C120        C  0.01752130  0.77600463  0.42250652     0.96900
C121        C  0.08053972  0.86825827  0.45749694     1.04300
O122        O  0.13081945  0.81140029  0.40609329    -1.12900
O123        O  0.20695149  0.87096909  0.38563801    -0.75300
O124        O  0.13236961  0.90479674  0.38274860    -0.78800
O125        O  0.05581138  0.75081216  0.42554309    -0.79500
C126        C  0.18019538  0.90651241  0.38466359     0.95800
O127        O  0.06761151  0.83084937  0.35994733    -0.77500
O128        O  0.23775539  0.79266980  0.41615282    -0.82600
C129        C  0.17444609  0.70663195  0.39804283     0.98400
C130        C  0.23281817  0.79578863  0.44229286     1.04300
O131        O  0.15983685  0.71826215  0.42199279    -0.78300
C132        C  0.09863937  0.81984799  0.34127724     1.02600
Fe133      Fe  0.58182374  0.66978119  0.59939610     1.65800
Fe134      Fe  0.69171627  0.71968354  0.61386589     1.73200
Fe135      Fe  0.62448022  0.75117647  0.55837198     1.54400
O136        O  0.58691933  0.69947465  0.53620693    -0.82000
O137        O  0.68099734  0.78778432  0.61891694    -0.80300
O138        O  0.59488340  0.63894902  0.56298917    -0.84500
O139        O  0.52313381  0.70861379  0.58204371    -0.79400
O140        O  0.69097639  0.72861045  0.54265543    -0.81200
O141        O  0.64861161  0.70936660  0.65024550    -0.83900
C142        C  0.51919269  0.74944198  0.57357350     0.96900
C143        C  0.58296494  0.65691532  0.54045649     1.04300
O144        O  0.63279141  0.71418204  0.59080727    -1.12900
O145        O  0.70756610  0.65215634  0.60928540    -0.75300
O146        O  0.63204520  0.62296560  0.61651956    -0.78800
O147        O  0.55735237  0.77491686  0.57278109    -0.79500
C148        C  0.67920531  0.61824616  0.61281804     0.95800
O149        O  0.56908351  0.69959949  0.63628819    -0.77500
O150        O  0.74007359  0.73081016  0.57994752    -0.82600
C151        C  0.67627777  0.81740467  0.60027729     0.98400
C152        C  0.73409184  0.72888427  0.55383862     1.04300
O153        O  0.66038769  0.80743183  0.57622554    -0.78300
C154        C  0.60116405  0.70616076  0.65514139     1.02600
Fe155      Fe  0.44219818  0.35805505  0.39313848     1.65800
Fe156      Fe  0.33339444  0.30433738  0.37943822     1.73200
Fe157      Fe  0.38888989  0.29205279  0.44088730     1.54400
O158        O  0.45807302  0.26409407  0.43449731    -0.82000
O159        O  0.27911221  0.29957458  0.41135748    -0.80300
O160        O  0.49745667  0.32291731  0.41617943    -0.84500
O161        O  0.42858198  0.39985938  0.42533392    -0.79400
O162        O  0.35609031  0.23077131  0.42753291    -0.81200
O163        O  0.31676677  0.37183726  0.37677980    -0.83900
C164        C  0.42798359  0.39050098  0.45065056     0.96900
C165        C  0.49812839  0.28617105  0.43007274     1.04300
O166        O  0.38848255  0.31768822  0.40435419    -1.12900
O167        O  0.38032497  0.30682149  0.34409226    -0.75300
O168        O  0.45829896  0.31853962  0.35957370    -0.78800
O169        O  0.42067695  0.35024192  0.45934818    -0.79500
C170        C  0.42816190  0.30736359  0.34051647     0.95800
O171        O  0.39342856  0.40046820  0.37061252    -0.77500
O172        O  0.34699980  0.23601539  0.38206980    -0.82600
C173        C  0.27951612  0.30949915  0.43696126     0.98400
C174        C  0.34635512  0.21305169  0.40411640     1.04300
O175        O  0.32015146  0.31891580  0.44923401    -0.78300
C176        C  0.34549533  0.40489182  0.37136328     1.02600
C177        C  0.49290140  0.46647357  0.50245920    -0.11700
C178        C  0.47759269  0.50918476  0.49272068     0.14800
C179        C  0.44021899  0.51163318  0.47216939     0.01700
C180        C  0.42010062  0.47171146  0.46140343    -0.16100
C181        C  0.43806422  0.42886640  0.46953640    -0.10900
C182        C  0.47351297  0.42634511  0.49115905     0.08400
C183        C  0.50379212  0.55026738  0.50282244     0.09500
S184        S  0.41978466  0.56430765  0.45695517    -0.25200
H185        H  0.39299485  0.47421320  0.44478492     0.19700
S186        S  0.49941527  0.37347346  0.50305874    -0.30900
H187        H  0.52153216  0.46441444  0.51830558     0.10000
C188        C  0.47802329  0.58520646  0.51683015     0.03200
C189        C  0.50447757  0.62404164  0.52490787    -0.13200
C190        C  0.55677865  0.62718738  0.52118756    -0.08900
C191        C  0.58266053  0.59200163  0.50756972     0.06700
C192        C  0.55582300  0.55432559  0.49807969    -0.14000
S193        S  0.41289138  0.57859150  0.52692074    -0.30900
H194        H  0.48528086  0.65014756  0.53659612     0.10900
S195        S  0.65024603  0.59195287  0.50359537    -0.28000
H196        H  0.57585142  0.52736963  0.48754123     0.08200
H197        H  0.45184780  0.35398844  0.50780387     0.26600
H198        H  0.41150429  0.61533980  0.54534030     0.21400
H199        H  0.65617245  0.63920826  0.50569221     0.26700
H200        H  0.46687806  0.58599584  0.45814577     0.15600
C201        C  0.85554094  0.76027476  0.51687955    -0.11700
C202        C  0.85059242  0.73488048  0.49256070     0.14800
C203        C  0.80999544  0.70433824  0.48995324     0.01700
C204        C  0.77466748  0.70098499  0.51122015    -0.16100
C205        C  0.77790339  0.72824285  0.53494057    -0.10900
C206        C  0.81927781  0.75802246  0.53777716     0.08400
C207        C  0.88770444  0.74235864  0.47020114     0.09500
S208        S  0.79972022  0.67018627  0.45966477    -0.25200
H209        H  0.74304422  0.67815002  0.50870415     0.19700
S210        S  0.82579678  0.79682434  0.56619729    -0.30900
H211        H  0.88675369  0.78369266  0.51899840     0.10000
C212        C  0.88995035  0.78402146  0.45614489     0.03200
C213        C  0.92997047  0.79252233  0.43803500    -0.13200
C214        C  0.96796313  0.75998655  0.43340511    -0.08900
C215        C  0.96137881  0.71597178  0.44478159     0.06700
C216        C  0.92224088  0.70812714  0.46353136    -0.14000
S217        S  0.84278610  0.82717487  0.46198498    -0.30900
H218        H  0.93322951  0.82587080  0.42897690     0.10900
S219        S  0.00162483  0.66840394  0.43678118    -0.28000
H220        H  0.91923692  0.67533784  0.47340935     0.08200
H221        H  0.77490585  0.81004238  0.56617922     0.26600
H222        H  0.85409058  0.85292998  0.43847696     0.21400
H223        H  0.00877219  0.68109532  0.40917167     0.26700
H224        H  0.82043491  0.70098384  0.44078199     0.15600
C225        C  0.35476496  0.76034470  0.47747485    -0.11700
C226        C  0.35190018  0.78593041  0.50178091     0.14800
C227        C  0.31235118  0.81740448  0.50516357     0.01700
C228        C  0.27597939  0.82183526  0.48454194    -0.16100
C229        C  0.27733989  0.79485136  0.46065510    -0.10900
C230        C  0.31766826  0.76395015  0.45709401     0.08400
C231        C  0.39094044  0.77915323  0.52309753     0.09500
S232        S  0.30535917  0.85196171  0.53557895    -0.25200
H233        H  0.24525175  0.84555616  0.48761468     0.19700
S234        S  0.32215167  0.72586066  0.42819504    -0.30900
H235        H  0.38527395  0.73626063  0.47481008     0.10000
C236        C  0.39119536  0.74047404  0.53998975     0.03200
C237        C  0.43120156  0.73361915  0.55840394    -0.13200
C238        C  0.47123950  0.76485185  0.56041620    -0.08900
C239        C  0.46782385  0.80586059  0.54508118     0.06700
C240        C  0.42841144  0.81194746  0.52635460    -0.14000
S241        S  0.34116153  0.69922918  0.53758468    -0.30900
H242        H  0.43247797  0.70249601  0.57011677     0.10900
S243        S  0.51275722  0.85152882  0.54733557    -0.28000
H244        H  0.42721464  0.84237030  0.51391089     0.08200
H245        H  0.27121491  0.71306563  0.42911891     0.26600
H246        H  0.35310636  0.67595190  0.56194889     0.21400
H247        H  0.51467577  0.85057021  0.57624276     0.26700
H248        H  0.32624234  0.82060528  0.55409893     0.15600
C249        C  0.31470633  0.09573642  0.37652038    -0.11700
C250        C  0.27807195  0.08169737  0.39546478     0.14800
C251        C  0.26831378  0.10899110  0.41879569     0.01700
C252        C  0.29424837  0.14997801  0.42223734    -0.16100
C253        C  0.32908702  0.16523601  0.40257860    -0.10900
C254        C  0.34057387  0.13680321  0.37994824     0.08400
C255        C  0.25331395  0.03699452  0.39150072     0.09500
S256        S  0.22233289  0.09402880  0.44455308    -0.25200
H257        H  0.28504480  0.17131592  0.43973449     0.19700
S258        S  0.38918344  0.15029804  0.35540859    -0.30900
H259        H  0.32366231  0.07418894  0.35908171     0.10000
C260        C  0.21317071  0.03075065  0.37284410     0.03200
C261        C  0.18960691  0.98802826  0.37084890    -0.13200
C262        C  0.20587996  0.95122555  0.38694346    -0.08900
C263        C  0.24615274  0.95807358  0.40569984     0.06700
C264        C  0.26958277  0.00042520  0.40747113    -0.14000
S265        S  0.19120595  0.07755292  0.35217405    -0.30900
H266        H  0.15859328  0.98320265  0.35670060     0.10900
S267        S  0.26759714  0.91518493  0.42937046    -0.28000
H268        H  0.30002569  0.00531833  0.42202583     0.08200
H269        H  0.41989984  0.17327519  0.37443933     0.26600
H270        H  0.15584480  0.05275427  0.33674683     0.21400
H271        H  0.21889099  0.90000399  0.43615164     0.26700
H272        H  0.18986862  0.07012465  0.42692360     0.15600
C273        C  0.24774141  0.49818915  0.36150874    -0.11700
C274        C  0.27285157  0.53538043  0.37307392     0.14800
C275        C  0.32419207  0.53093999  0.38020978     0.01700
C276        C  0.34801346  0.48863991  0.37789124    -0.16100
C277        C  0.32210956  0.45047976  0.36786565    -0.10900
C278        C  0.27190597  0.45605030  0.35839996     0.08400
C279        C  0.24385622  0.57743300  0.37909451     0.09500
S280        S  0.36092400  0.57789207  0.39288432    -0.25200
H281        H  0.38653785  0.48519505  0.38502140     0.19700
S282        S  0.23819747  0.40999348  0.34212887    -0.30900
H283        H  0.20865120  0.50204933  0.35553139     0.10000
C284        C  0.22676593  0.60624100  0.35804129     0.03200
C285        C  0.20174501  0.64672520  0.36488074    -0.13200
C286        C  0.19303903  0.65945719  0.39247340    -0.08900
C287        C  0.20806355  0.62882604  0.41348015     0.06700
C288        C  0.23373119  0.58880112  0.40654251    -0.14000
S289        S  0.23917099  0.59266446  0.32244905    -0.30900
H290        H  0.19007131  0.66916105  0.34850963     0.10900
S291        S  0.19768671  0.63887407  0.44956636    -0.28000
H292        H  0.24621087  0.56626815  0.42274498     0.08200
H293        H  0.19425183  0.43445225  0.33560693     0.26600
H294        H  0.21982412  0.63298823  0.31118484     0.21400
H295        H  0.14532552  0.64448787  0.44631295     0.26700
H296        H  0.33420189  0.61196358  0.37889353     0.15600
C297        C  0.82599451  0.99074750  0.61930074    -0.11700
C298        C  0.77345163  0.98888933  0.62242475     0.14800
C299        C  0.74723435  0.02821583  0.63066301     0.01700
C300        C  0.77357314  0.06876576  0.63436874    -0.16100
C301        C  0.82581009  0.07182760  0.62943543    -0.10900
C302        C  0.85249395  0.03146163  0.62291839     0.08400
C303        C  0.74673337  0.94587443  0.61646736     0.09500
S304        S  0.67976102  0.02962070  0.63535218    -0.25200
H305        H  0.75229605  0.09890647  0.63973444     0.19700
S306        S  0.91950960  0.02971726  0.61724808    -0.30900
H307        H  0.84638329  0.96034788  0.61342977     0.10000
C308        C  0.74117726  0.92993444  0.58930442     0.03200
C309        C  0.71506961  0.88937319  0.58444089    -0.13200
C310        C  0.69427565  0.86414867  0.60616524    -0.08900
C311        C  0.69759831  0.88180323  0.63326687     0.06700
C312        C  0.72448428  0.92183956  0.63810523    -0.14000
S313        S  0.76712084  0.96141373  0.56078252    -0.30900
H314        H  0.71255175  0.87639453  0.56364735     0.10900
S315        S  0.66720614  0.85595828  0.66248006    -0.28000
H316        H  0.72749518  0.93482258  0.65891307     0.08200
H317        H  0.93065647  0.04965182  0.64283429     0.26600
H318        H  0.75047938  0.93213043  0.53982386     0.21400
H319        H  0.62483164  0.84094131  0.64765494     0.26700
H320        H  0.66818403  0.99830694  0.61447850     0.15600
C321        C  0.81782151  0.43698633  0.58582047    -0.11700
C322        C  0.77952356  0.44386129  0.60539997     0.14800
C323        C  0.76458750  0.40741171  0.62221061     0.01700
C324        C  0.78694058  0.36498359  0.61864209    -0.16100
C325        C  0.82512787  0.35761850  0.59901910    -0.10900
C326        C  0.84128827  0.39452330  0.58273908     0.08400
C327        C  0.75434031  0.48869915  0.60738280     0.09500
S328        S  0.71689149  0.41262679  0.64850495    -0.25200
H329        H  0.77370435  0.33715981  0.63125252     0.19700
S330        S  0.89239456  0.39012367  0.55848046    -0.30900
H331        H  0.82967357  0.46500047  0.57297283     0.10000
C332        C  0.77959915  0.52701543  0.61772802     0.03200
C333        C  0.75366731  0.56833815  0.62002353    -0.13200
C334        C  0.70265490  0.57235874  0.61235185    -0.08900
C335        C  0.67731932  0.53359354  0.60206510     0.06700
C336        C  0.70350877  0.49232959  0.59976556    -0.14000
S337        S  0.84457027  0.52311881  0.62861049    -0.30900
H338        H  0.77335520  0.59779457  0.62775846     0.10900
S339        S  0.61268709  0.53627659  0.59033625    -0.28000
H340        H  0.68453287  0.46258033  0.59189311     0.08200
H341        H  0.92128770  0.36021737  0.57459019     0.26600
H342        H  0.84869208  0.56756960  0.63888835     0.21400
H343        H  0.60898632  0.49129172  0.58090505     0.26700
H344        H  0.72752419  0.45792459  0.65541117     0.15600
C345        C  0.99092539  0.05667035  0.49718333    -0.11700
C346        C  0.97604672  0.01446921  0.50781053     0.14800
C347        C  0.93871712  0.01286767  0.52842421     0.01700
C348        C  0.91876076  0.05329800  0.53864507    -0.16100
C349        C  0.93659053  0.09573279  0.52974780    -0.10900
C350        C  0.97126028  0.09728852  0.50771906     0.08400
C351        C  0.00146517  0.97300528  0.49771748     0.09500
S352        S  0.91759929  0.96079547  0.54413975    -0.25200
H353        H  0.89180956  0.05162397  0.55537236     0.19700
S354        S  0.99502329  0.14960724  0.49383132    -0.30900
H355        H  0.01904618  0.05795824  0.48103913     0.10000
C356        C  0.97571413  0.94039199  0.48190353     0.03200
C357        C  0.00185833  0.90224848  0.47235031    -0.13200
C358        C  0.05370787  0.89716732  0.47708430    -0.08900
C359        C  0.07931330  0.92937471  0.49326107     0.06700
C360        C  0.05284564  0.96678074  0.50363236    -0.14000
S361        S  0.91096878  0.94921329  0.47172246    -0.30900
H362        H  0.98286295  0.87820192  0.45911380     0.10900
S363        S  0.14613494  0.92595023  0.49975461    -0.28000
H364        H  0.07269294  0.99189243  0.51576911     0.08200
H365        H  0.94690254  0.16894582  0.49069311     0.26600
H366        H  0.91011511  0.91580974  0.45108334     0.21400
H367        H  0.15050681  0.87898836  0.49526444     0.26700
H368        H  0.96358204  0.93739584  0.54178481     0.15600
C369        C  0.62320349  0.28460263  0.46901795    -0.11700
C370        C  0.61819587  0.24404520  0.48379096     0.14800
C371        C  0.57766884  0.21490489  0.47776867     0.01700
C372        C  0.54222115  0.22764559  0.45796541    -0.16100
C373        C  0.54483098  0.26978322  0.44426857    -0.10900
C374        C  0.58764154  0.29748597  0.44912328     0.08400
C375        C  0.65635324  0.23267992  0.50494750     0.09500
S376        S  0.56794554  0.16165821  0.49523970    -0.25200
H377        H  0.51059473  0.20517515  0.45443245     0.19700
S378        S  0.59895166  0.34999840  0.43138209    -0.30900
H379        H  0.65513599  0.30649577  0.47309561     0.10000
C380        C  0.69484347  0.20101092  0.49969032     0.03200
C381        C  0.73158106  0.19290308  0.51980264    -0.13200
C382        C  0.73124718  0.21611064  0.54518457    -0.08900
C383        C  0.69055442  0.24586889  0.55092298     0.06700
C384        C  0.65410771  0.25421509  0.53065278    -0.14000
S385        S  0.69892180  0.17291296  0.46672334    -0.30900
H386        H  0.76218835  0.16981756  0.51518304     0.10900
S387        S  0.68469347  0.27672532  0.58272358    -0.28000
H388        H  0.62396201  0.27808432  0.53482238     0.08200
H389        H  0.58943494  0.33119208  0.40527802     0.26600
H390        H  0.74100696  0.14567602  0.47283058     0.21400
H391        H  0.68708299  0.23729525  0.59893547     0.26700
H392        H  0.58955329  0.17448364  0.52043799     0.15600
C393        C  0.11948923  0.23722282  0.52639005    -0.11700
C394        C  0.11898997  0.28128947  0.51561206     0.14800
C395        C  0.08279861  0.31255649  0.52532473     0.01700
C396        C  0.04689935  0.29852922  0.54460283    -0.16100
C397        C  0.04489000  0.25344200  0.55411405    -0.10900
C398        C  0.08307306  0.22284051  0.54534747     0.08400
C399        C  0.15692348  0.29324490  0.49439691     0.09500
S400        S  0.07901542  0.37034349  0.51331880    -0.25200
H401        H  0.01850340  0.32271990  0.55116893     0.19700
S402        S  0.08692276  0.16461520  0.55636537    -0.30900
H403        H  0.14787346  0.21336063  0.51936491     0.10000
C404        C  0.19849629  0.32085435  0.50064890     0.03200
C405        C  0.23533834  0.32852402  0.48054674    -0.13200
C406        C  0.23309551  0.30768251  0.45439070    -0.08900
C407        C  0.19017499  0.28105576  0.44800189     0.06700
C408        C  0.15254381  0.27461305  0.46792326    -0.14000
S409        S  0.20654911  0.34381330  0.53484622    -0.30900
H410        H  0.26748049  0.34929814  0.48582217     0.10900
S411        S  0.18218580  0.25199633  0.41573085    -0.28000
H412        H  0.12043466  0.25338534  0.46311602     0.08200
H413        H  0.03740566  0.15390229  0.54864391     0.26600
H414        H  0.25210245  0.36672305  0.52987968     0.21400
H415        H  0.22819809  0.22862811  0.41781843     0.26700
H416        H  0.09901837  0.36245952  0.48700103     0.15600
C417        C  0.51129742  0.27059200  0.21262478    -0.11700
C418        C  0.53144986  0.29280775  0.23564205     0.14800
C419        C  0.57935436  0.31361858  0.23322631     0.01700
C420        C  0.60468356  0.31345845  0.20780033    -0.16100
C421        C  0.58294743  0.29373501  0.18433234    -0.10900
C422        C  0.53644232  0.27052615  0.18724734     0.08400
C423        C  0.50184441  0.29341723  0.26181495     0.09500
S424        S  0.60900007  0.34311283  0.26139205    -0.25200
H425        H  0.64004530  0.33153065  0.20594054     0.19700
S426        S  0.50708972  0.24001572  0.15933204    -0.30900
H427        H  0.47536379  0.25341023  0.21440539     0.10000
C428        C  0.45625297  0.31801016  0.26430898     0.03200
C429        C  0.43089885  0.31948362  0.28977844    -0.13200
C430        C  0.45026796  0.29720348  0.31301274    -0.08900
C431        C  0.49473118  0.27094192  0.31004507     0.06700
C432        C  0.51995482  0.26953495  0.28469013    -0.14000
S433        S  0.43210180  0.35009559  0.23556913    -0.30900
H434        H  0.39728960  0.34006065  0.29199673     0.10900
S435        S  0.52120877  0.23824621  0.33782995    -0.28000
H436        H  0.55435228  0.24988552  0.28281319     0.08200
H437        H  0.55242524  0.22844261  0.14601427     0.26600
H438        H  0.38879582  0.36694540  0.24880962     0.21400
H439        H  0.47512888  0.23020440  0.35120902     0.26700
H440        H  0.56414914  0.35899872  0.27344756     0.15600
C441        C  0.52813840  0.69715858  0.78246894    -0.11700
C442        C  0.51058515  0.72723814  0.76251002     0.14800
C443        C  0.46704095  0.75351000  0.76800452     0.01700
C444        C  0.44223278  0.74902948  0.79343558    -0.16100
C445        C  0.45975722  0.71856995  0.81347546    -0.10900
C446        C  0.50295852  0.69169797  0.80739473     0.08400
C447        C  0.53410653  0.72410747  0.73495293     0.09500
S448        S  0.44045490  0.79230329  0.74330083    -0.25200
H449        H  0.40931014  0.76970090  0.79765734     0.19700
S450        S  0.52622900  0.64703806  0.82939062    -0.30900
H451        H  0.56044444  0.67581839  0.77793286     0.10000
C452        C  0.57649459  0.75008907  0.72737792     0.03200
C453        C  0.59951970  0.74268475  0.70162951    -0.13200
C454        C  0.58117305  0.70933013  0.68356217    -0.08900
C455        C  0.53995132  0.68207771  0.69201870     0.06700
C456        C  0.51660827  0.69028860  0.71723529    -0.14000
S457        S  0.60043986  0.79308611  0.75031225    -0.30900
H458        H  0.63088552  0.76359747  0.69526239     0.10900
S459        S  0.51624137  0.63492262  0.67216935    -0.28000
H460        H  0.48524349  0.66917979  0.72351134     0.08200
H461        H  0.47803170  0.63051431  0.83607575     0.26600
H462        H  0.63964068  0.80807099  0.73310955     0.21400
H463        H  0.56370375  0.62156694  0.66208268     0.26700
H464        H  0.48390957  0.79815990  0.72723546     0.15600
C465        C  0.52089995  0.54744023  0.96700716    -0.14100
C466        C  0.50473119  0.53465095  0.99313537     0.14800
C467        C  0.46832250  0.56127325  0.00706555     0.01700
C468        C  0.44730686  0.59923360  0.99386121    -0.16100
C469        C  0.46241264  0.61100316  0.96719420    -0.10900
C470        C  0.50028842  0.58505964  0.95384996     0.08400
C471        C  0.52793232  0.49357566  0.00491016     0.09500
S472        S  0.44634330  0.54801018  0.04119656    -0.25200
H473        H  0.41806634  0.61870569  0.00403476     0.19700
S474        S  0.52330432  0.59957135  0.91991743    -0.30900
H475        H  0.54956159  0.52734336  0.95679833     0.10000
C476        C  0.50374807  0.45092266  0.00467650     0.03200
C477        C  0.52835321  0.41335121  0.01607078    -0.13200
C478        C  0.57666073  0.41749636  0.02752991    -0.08900
C479        C  0.60167287  0.45974890  0.02646553     0.06700
C480        C  0.57712943  0.49713934  0.01509005    -0.14000
S481        S  0.44092781  0.44258993  0.99142785    -0.30900
H482        H  0.50850869  0.38132544  0.01744129     0.10900
S483        S  0.66412341  0.46882446  0.04016984    -0.28000
H484        H  0.59618813  0.52961107  0.01461427     0.08200
H485        H  0.55216631  0.56020304  0.91542244     0.26600
H486        H  0.44232635  0.47734760  0.97174349     0.21400
H487        H  0.67875288  0.42311423  0.04124577     0.26700
H488        H  0.48952460  0.52444733  0.04989585     0.15600
C489        C  0.03455361  0.80766786  0.21163355    -0.11700
C490        C  0.00455687  0.79746659  0.23436282     0.14800
C491        C  0.95223725  0.79088500  0.23037591     0.01700
C492        C  0.93128076  0.79518184  0.20387583    -0.16100
C493        C  0.96115362  0.80659113  0.18094592    -0.10900
C494        C  0.01388219  0.81332012  0.18542149     0.08400
C495        C  0.02825404  0.80106877  0.26207413     0.09500
S496        S  0.91019504  0.77763485  0.25834790    -0.25200
H497        H  0.89114303  0.78992485  0.20127269     0.19700
S498        S  0.05749843  0.83275137  0.15955651    -0.30900
H499        H  0.07444366  0.81401933  0.21467968     0.10000
C500        C  0.06447952  0.76960657  0.27162686     0.03200
C501        C  0.08884686  0.77709669  0.29702332    -0.13200
C502        C  0.07810121  0.81574280  0.31293296    -0.08900
C503        C  0.04304720  0.84786377  0.30267483     0.06700
C504        C  0.01818955  0.83984802  0.27778377    -0.14000
S505        S  0.07837994  0.71924534  0.25188979    -0.30900
H506        H  0.11517154  0.75220410  0.30489810     0.10900
S507        S  0.02979713  0.90087965  0.31980482    -0.28000
H508        H  0.99177514  0.86490092  0.27010863     0.08200
H509        H  0.02835092  0.87121165  0.15306415     0.26600
H510        H  0.11644013  0.70246531  0.26926689     0.21400
H511        H  0.07890764  0.90683621  0.33009447     0.26700
H512        H  0.94663212  0.75731604  0.27532623     0.15600
C513        C  0.19196230  0.68947303  0.98975612    -0.11700
C514        C  0.16190475  0.72850373  0.99094471     0.14800
C515        C  0.16932754  0.76353744  0.97159709     0.01700
C516        C  0.20802367  0.75961371  0.95221722    -0.16100
C517        C  0.23957389  0.72147680  0.95175852    -0.10900
C518        C  0.23056648  0.68548288  0.97031932     0.08400
C519        C  0.12326447  0.73204312  0.01264275     0.09500
S520        S  0.13312576  0.81539405  0.97171817    -0.25200
H521        H  0.21534973  0.78767237  0.93842362     0.19700
S522        S  0.26770785  0.63411730  0.97058771    -0.30900
H523        H  0.18572315  0.66227019  0.00431224     0.10000
C524        C  0.07442785  0.71531179  0.00826344     0.03200
C525        C  0.03700850  0.72402996  0.02780607    -0.13200
C526        C  0.04709982  0.74982702  0.05162203    -0.08900
C527        C  0.09734484  0.76316239  0.05697690     0.06700
C528        C  0.13478973  0.75451406  0.03728959    -0.14000
S529        S  0.05868834  0.68658162  0.97655586    -0.30900
H530        H  0.99881297  0.71361939  0.02332409     0.10900
S531        S  0.11583166  0.79209606  0.08801821    -0.28000
H532        H  0.17283505  0.76641620  0.04083865     0.08200
H533        H  0.28072415  0.63533850  0.94256092     0.26600
H534        H  0.00802863  0.67742417  0.98299727     0.21400
H535        H  0.07869596  0.77186842  0.10459078     0.26700
H536        H  0.08792263  0.79660268  0.98140148     0.15600
C537        C  0.59800558  0.81572955  0.96716422    -0.11700
C538        C  0.63089279  0.78182529  0.97655341     0.14800
C539        C  0.62680227  0.73769518  0.96533047     0.01700
C540        C  0.58704730  0.72742017  0.94744485    -0.16100
C541        C  0.55191195  0.76064563  0.93951142    -0.10900
C542        C  0.56006827  0.80606388  0.94803655     0.08400
C543        C  0.66734439  0.79265419  0.99890834     0.09500
S544        S  0.67024960  0.69261734  0.97357257    -0.25200
H545        H  0.58230970  0.69262877  0.94077325     0.19700
S546        S  0.52356320  0.85329103  0.93538912    -0.30900
H547        H  0.60150936  0.84995658  0.97503554     0.10000
C548        C  0.70507189  0.82584854  0.99567324     0.03200
C549        C  0.74113857  0.83184521  0.01643235    -0.13200
C550        C  0.74105140  0.80513115  0.04040591    -0.08900
C551        C  0.70115832  0.77402250  0.04436246     0.06700
C552        C  0.66487766  0.76826855  0.02368478    -0.14000
S553        S  0.71068418  0.85773256  0.96412668    -0.30900
H554        H  0.77154554  0.85567938  0.01321174     0.10900
S555        S  0.69736924  0.73723434  0.07377945    -0.28000
H556        H  0.63538619  0.74334510  0.02651351     0.08200
H557        H  0.51557199  0.83431530  0.90917503     0.26600
H558        H  0.74737656  0.88848827  0.97349473     0.21400
H559        H  0.69856478  0.77330082  0.09272723     0.26700
H560        H  0.71219966  0.72088890  0.97779902     0.15600
C561        C  0.83412628  0.02998236  0.09614130    -0.11700
C562        C  0.78392200  0.03474180  0.10475692     0.14800
C563        C  0.76007278  0.99819308  0.11805570     0.01700
C564        C  0.78647059  0.95766780  0.12204728    -0.16100
C565        C  0.83692202  0.95243574  0.11351363    -0.10900
C566        C  0.86096425  0.98963286  0.10054348     0.08400
C567        C  0.75842448  0.07908640  0.10122048     0.09500
S568        S  0.69579488  0.00084072  0.13008096    -0.25200
H569        H  0.76702716  0.92964956  0.13176624     0.19700
S570        S  0.92436174  0.98718853  0.08747952    -0.30900
H571        H  0.85263392  0.05813564  0.08602010     0.10000
C572        C  0.77025933  0.11556287  0.11866394     0.03200
C573        C  0.74433204  0.15660606  0.11587273    -0.13200
C574        C  0.70652060  0.16260198  0.09586602    -0.08900
C575        C  0.69457611  0.12565051  0.07838924     0.06700
C576        C  0.72082404  0.08445827  0.08115980    -0.14000
S577        S  0.81767887  0.10949910  0.14508585    -0.30900
H578        H  0.75431206  0.18454596  0.12925004     0.10900
S579        S  0.64510412  0.12807284  0.05312705    -0.28000
H580        H  0.71130565  0.05612411  0.06793806     0.08200
H581        H  0.94522198  0.97700133  0.11332514     0.26600
H582        H  0.81934837  0.15538328  0.15295639     0.21400
H583        H  0.61265458  0.15376870  0.06988095     0.26700
H584        H  0.69648800  0.04688518  0.13755598     0.15600
C585        C  0.81163340  0.58365837  0.09198562    -0.11700
C586        C  0.77419863  0.58066494  0.11237830     0.14800
C587        C  0.76202114  0.61984683  0.12774205     0.01700
C588        C  0.78638216  0.66086770  0.12198565    -0.16100
C589        C  0.82378349  0.66420281  0.10151369    -0.10900
C590        C  0.83669622  0.62467973  0.08653189     0.08400
C591        C  0.74897171  0.53621465  0.11716419     0.09500
S592        S  0.71568329  0.62006450  0.15492527    -0.25200
H593        H  0.77558015  0.69073450  0.13359393     0.19700
S594        S  0.88582029  0.62380946  0.06096500    -0.30900
H595        H  0.82163612  0.55363567  0.08032321     0.10000
C596        C  0.69838983  0.52847522  0.10955483     0.03200
C597        C  0.67697492  0.48540293  0.11355601    -0.13200
C598        C  0.70518722  0.44930439  0.12453571    -0.08900
C599        C  0.75533567  0.45768267  0.13316377     0.06700
C600        C  0.77658240  0.50090598  0.12928474    -0.14000
S601        S  0.66197195  0.57250710  0.09306985    -0.30900
H602        H  0.63887215  0.47911759  0.10657240     0.10900
S603        S  0.79231279  0.41399988  0.14969364    -0.28000
H604        H  0.81509063  0.50733910  0.13553007     0.08200
H605        H  0.91783280  0.65366893  0.07523922     0.26600
H606        H  0.61594361  0.54889595  0.09235285     0.21400
H607        H  0.83600333  0.44003556  0.15399249     0.26700
H608        H  0.72201468  0.57458188  0.16275903     0.15600
C609        C  0.01561326  0.26297926  0.71238682    -0.11700
C610        C  0.99784182  0.24033102  0.73576437     0.14800
C611        C  0.95166155  0.21650305  0.73420777     0.01700
C612        C  0.92629790  0.21333786  0.70898034    -0.16100
C613        C  0.94636913  0.23283200  0.68506543    -0.10900
C614        C  0.99020512  0.25992575  0.68723110     0.08400
C615        C  0.02934593  0.24032514  0.76100523     0.09500
S616        S  0.92443008  0.18746216  0.76323322    -0.25200
H617        H  0.89242800  0.19288461  0.70766715     0.19700
S618        S  0.01549381  0.29147001  0.65864633    -0.30900
H619        H  0.05017407  0.28248533  0.71364597     0.10000
C620        C  0.07407337  0.21438862  0.76249314     0.03200
C621        C  0.10073350  0.21187846  0.78741788    -0.13200
C622        C  0.08307917  0.23413474  0.81102256    -0.08900
C623        C  0.03957880  0.26188703  0.80907870     0.06700
C624        C  0.01325225  0.26462552  0.78417874    -0.14000
S625        S  0.09481290  0.18133832  0.73329498    -0.30900
H626        H  0.13348185  0.19006346  0.78903824     0.10900
S627        S  0.01506352  0.29371861  0.83786698    -0.28000
H628        H  0.97923781  0.28496571  0.78301879     0.08200
H629        H  0.96878485  0.29854692  0.64561728     0.26600
H630        H  0.13856310  0.16351420  0.74553738     0.21400
H631        H  0.06159017  0.29919920  0.85132904     0.26700
H632        H  0.97025387  0.17450173  0.77540561     0.15600
C633        C  0.04098342  0.95284711  0.01125834    -0.11700
C634        C  0.01074279  0.98606185  0.99886888     0.14800
C635        C  0.95910377  0.97595850  0.99421404     0.01700
C636        C  0.93816091  0.93601628  0.00524158    -0.16100
C637        C  0.96847832  0.90376828  0.01858032    -0.10900
C638        C  0.02084842  0.91174224  0.02017275     0.08400
C639        C  0.03572866  0.02899566  0.98979047     0.09500
S640        S  0.91822915  0.01173833  0.97403853    -0.25200
H641        H  0.89783710  0.93060784  0.00400161     0.19700
S642        S  0.06376573  0.87133142  0.03477270    -0.30900
H643        H  0.08089182  0.95903069  0.01417869     0.10000
C644        C  0.01938185  0.07284352  0.99791193     0.03200
C645        C  0.04247793  0.11153162  0.98638233    -0.13200
C646        C  0.08338105  0.10715940  0.96820935    -0.08900
C647        C  0.10388444  0.06352570  0.96349957     0.06700
C648        C  0.07909997  0.02527304  0.97344034    -0.14000
S649        S  0.97005732  0.07979650  0.02318284    -0.30900
H650        H  0.02706434  0.14491810  0.99038955     0.10900
S651        S  0.16084861  0.05426480  0.94395464    -0.28000
H652        H  0.09364943  0.99206183  0.96804611     0.08200
H653        H  0.03769133  0.83394574  0.02387375     0.26600
H654        H  0.96987953  0.12750510  0.02336700     0.21400
H655        H  0.18175015  0.09727850  0.94905594     0.26700
H656        H  0.95642507  0.02995181  0.95735531     0.15600
C657        C  0.23110709  0.44009837  0.91325936    -0.11700
C658        C  0.23993139  0.45491417  0.88625474     0.14800
C659        C  0.22302305  0.42788149  0.86420350     0.01700
C660        C  0.19924093  0.38644740  0.86954335    -0.16100
C661        C  0.19119054  0.37057803  0.89658455    -0.10900
C662        C  0.20658254  0.39884473  0.91868682     0.08400
C663        C  0.26602846  0.49898186  0.88175215     0.09500
S664        S  0.23150775  0.44379061  0.82869473    -0.25200
H665        H  0.18773984  0.36599562  0.85213325     0.19700
S666        S  0.19834923  0.38383514  0.95423684    -0.30900
H667        H  0.24362352  0.46091729  0.93031287     0.10000
C668        C  0.24180693  0.54030586  0.88773055     0.03200
C669        C  0.26756095  0.58127230  0.88375004    -0.13200
C670        C  0.31732496  0.58252149  0.87348968    -0.08900
C671        C  0.34044190  0.54081240  0.86606422     0.06700
C672        C  0.31496745  0.49973090  0.87071859    -0.14000
S673        S  0.17768930  0.54093837  0.90029700    -0.30900
H674        H  0.24895478  0.61257104  0.88954537     0.10900
S675        S  0.40143453  0.53744423  0.84990433    -0.28000
H676        H  0.33324876  0.46798222  0.86540481     0.08200
H677        H  0.14601055  0.37757382  0.95143455     0.26600
H678        H  0.17080430  0.58821419  0.89945776     0.21400
H679        H  0.39300885  0.57493307  0.83261853     0.26700
H680        H  0.22817098  0.49087130  0.83284969     0.15600
C681        C  0.33132236  0.93963716  0.87317682    -0.11700
C682        C  0.29102851  0.95435621  0.88964076     0.14800
C683        C  0.27515358  0.92675665  0.91174284     0.01700
C684        C  0.29901982  0.88502642  0.91653095    -0.16100
C685        C  0.33795934  0.86933062  0.89938868    -0.10900
C686        C  0.35509342  0.89776384  0.87790337     0.08400
C687        C  0.26768392  0.99939527  0.88414789     0.09500
S688        S  0.22396368  0.94242788  0.93423552    -0.25200
H689        H  0.28516292  0.86351208  0.93293092     0.19700
S690        S  0.40783416  0.88296244  0.85626253    -0.30900
H691        H  0.34461315  0.96112989  0.85663559     0.10000
C692        C  0.28129057  0.03783576  0.89960568     0.03200
C693        C  0.25643272  0.07914034  0.89503242    -0.13200
C694        C  0.21773567  0.08328379  0.87533202    -0.08900
C695        C  0.20568548  0.04509909  0.85900752     0.06700
C696        C  0.23054972  0.00360476  0.86367254    -0.14000
S697        S  0.32992236  0.03417708  0.92550730    -0.30900
H698        H  0.26607410  0.10812437  0.90764578     0.10900
S699        S  0.16042408  0.04747528  0.83146022    -0.28000
H700        H  0.22064338  0.97426699  0.85140572     0.08200
H701        H  0.43318836  0.85705681  0.87621936     0.26600
H702        H  0.32664701  0.07933030  0.93473683     0.21400
H703        H  0.17114033  0.09254514  0.82404458     0.26700
H704        H  0.19547496  0.96526374  0.91422309     0.15600
C705        C  0.32604109  0.21240119  0.00042014    -0.11700
C706        C  0.36533615  0.24241502  0.99438332     0.14800
C707        C  0.36706932  0.26297139  0.96814437     0.01700
C708        C  0.32699275  0.25662498  0.94972724    -0.16100
C709        C  0.28579091  0.22887006  0.95647989    -0.10900
C710        C  0.28672392  0.20480928  0.98172197     0.08400
C711        C  0.40325381  0.25180774  0.01614917     0.09500
S712        S  0.41893542  0.29799714  0.95704861    -0.25200
H713        H  0.32736599  0.27459427  0.93031668     0.19700
S714        S  0.23874651  0.16357149  0.99031473    -0.30900
H715        H  0.32582674  0.19552755  0.02017248     0.10000
C716        C  0.40746737  0.29480908  0.02866784     0.03200
C717        C  0.44560756  0.30250293  0.04816418    -0.13200
C718        C  0.47921964  0.26780215  0.05595368    -0.08900
C719        C  0.47128622  0.22358565  0.04524776     0.06700
C720        C  0.43423600  0.21637002  0.02522808    -0.14000
S721        S  0.36429674  0.33994927  0.01986283    -0.30900
H722        H  0.45069491  0.33633223  0.05631869     0.10900
S723        S  0.50655803  0.17462097  0.05624541    -0.28000
H724        H  0.42964726  0.18281532  0.01652155     0.08200
H725        H  0.25823422  0.15072757  0.01603467     0.26600
H726        H  0.38440676  0.37284830  0.03770913     0.21400
H727        H  0.51251786  0.18977949  0.08350016     0.26700
H728        H  0.45573072  0.27773561  0.97381782     0.15600
C729        C  0.82355310  0.31397331  0.99205583    -0.11700
C730        C  0.86237666  0.28316204  0.99771775     0.14800
C731        C  0.86680261  0.26567404  0.02473468     0.01700
C732        C  0.82907541  0.27507895  0.04423573    -0.16100
C733        C  0.78821547  0.30364219  0.03792218    -0.10900
C734        C  0.78743042  0.32537248  0.01190464     0.08400
C735        C  0.89807763  0.27158934  0.97507059     0.09500
S736        S  0.91960782  0.23160878  0.03578057    -0.25200
H737        H  0.83099283  0.25894458  0.06418984     0.19700
S738        S  0.74098704  0.36814159  0.00347197    -0.30900
H739        H  0.82116464  0.32870399  0.97173123     0.10000
C740        C  0.90528446  0.22669332  0.96559575     0.03200
C741        C  0.94290610  0.21771646  0.94593729    -0.13200
C742        C  0.97226389  0.25288469  0.93478128    -0.08900
C743        C  0.95982422  0.29820745  0.94154505     0.06700
C744        C  0.92400746  0.30695416  0.96197947    -0.14000
S745        S  0.86690616  0.18077087  0.97842470    -0.30900
H746        H  0.95147953  0.18292389  0.94054941     0.10900
S747        S  0.98864376  0.34637176  0.92504151    -0.28000
H748        H  0.91679574  0.34174912  0.96801297     0.08200
H749        H  0.76306067  0.38284413  0.97875611     0.26600
H750        H  0.88735841  0.14650856  0.96161010     0.21400
H751        H  0.99869276  0.32370201  0.90015838     0.26700
H752        H  0.95459136  0.24933122  0.01695316     0.15600
loop_ 
_geom_bond_atom_site_label_1 
_geom_bond_atom_site_label_2 
_geom_bond_distance 
_geom_bond_site_symmetry_2 
_ccdc_geom_bond_type 
Fe1          O17   2.111       .  S
Fe1           O7   2.012       .  S
Fe1          O14   2.035       .  S
Fe1           O6   2.106       .  S
Fe1          O12   1.942       .  S
Fe2           O5   2.113       .  S
Fe2           O9   2.037       .  S
Fe2          O13   2.119       .  S
Fe2          O18   2.038       .  S
Fe2          O12   1.941       .  S
Fe3          O21   2.032       .  S
Fe3           O8   2.122       .  S
Fe3          O15   2.134       .  S
Fe3           O4   2.041       .  S
Fe3          O12   1.937       .  S
O4           C11   1.266       .  A
O5           C19   1.279       .  A
O6           C11   1.277       .  A
O7           C10   1.262       .  A
O8           C20   1.280       .  A
O9           C22   1.264       .  A
C10          O15   1.282       .  A
C10         C646   1.482       .  S
C11         C742   1.485   1_455  S
O13          C16   1.280       .  A
O14          C16   1.265       .  A
C16         C622   1.479       .  S
O17          C22   1.277       .  A
O18          C20   1.267       .  A
C19          O21   1.265       .  A
C19         C709   1.488       .  S
C20         C661   1.502       .  S
C22         C694   1.491       .  S
Fe23         O39   2.034       .  S
Fe23         O29   2.109   1_655  S
Fe23         O36   2.103       .  S
Fe23         O28   2.022       .  S
Fe23         O34   1.929       .  S
Fe24         O27   2.045       .  S
Fe24         O31   2.139       .  S
Fe24         O35   2.035       .  S
Fe24         O40   2.122       .  S
Fe24         O34   1.936       .  S
Fe25         O43   2.124       .  S
Fe25         O30   2.033       .  S
Fe25         O37   2.035       .  S
Fe25         O26   2.144       .  S
Fe25         O34   1.928       .  S
O26          C33   1.282       .  A
O27          C41   1.269       .  A
O28          C33   1.258       .  A
O29          C32   1.278       .  A
O30          C42   1.267       .  A
O31          C44   1.284       .  A
C32          O37   1.264   1_455  A
C32         C526   1.485       .  S
C33         C637   1.480       .  S
O35          C38   1.266       .  A
O36          C38   1.276       .  A
C38         C565   1.490       .  S
O39          C44   1.261       .  A
O40          C42   1.280       .  A
C41          O43   1.282       .  A
C41         C589   1.493       .  S
C42         C550   1.488       .  S
C44         C493   1.507       .  S
Fe45         O61   2.022       .  S
Fe45         O51   2.119       .  S
Fe45         O58   2.097       .  S
Fe45         O50   2.015       .  S
Fe45         O56   1.913       .  S
Fe46         O49   2.054       .  S
Fe46         O53   2.132       .  S
Fe46         O57   2.050       .  S
Fe46         O62   2.114       .  S
Fe46         O56   1.928       .  S
Fe47         O65   2.119       .  S
Fe47         O52   2.028       .  S
Fe47         O59   2.033       .  S
Fe47         O48   2.134       .  S
Fe47         O56   1.935       .  S
O48          C55   1.277       .  A
O49          C63   1.270       .  A
O50          C55   1.252       .  A
O51          C54   1.281       .  A
O52          C64   1.266       .  A
O53          C66   1.284       .  A
C54          O59   1.267       .  A
C54         C541   1.488       .  S
C55         C469   1.474       .  S
O57          C60   1.267       .  A
O58          C60   1.274       .  A
C60         C670   1.500       .  S
O61          C66   1.262       .  A
O62          C64   1.281       .  A
C63          O65   1.281       .  A
C63         C685   1.487       .  S
C64         C517   1.470       .  S
C66         C445   1.488       .  S
Fe67         O83   2.100       .  S
Fe67         O73   2.020       .  S
Fe67         O80   2.038       .  S
Fe67         O72   2.111       .  S
Fe67         O78   1.934       .  S
Fe68         O71   2.128       .  S
Fe68         O75   2.053       .  S
Fe68         O79   2.134       .  S
Fe68         O84   2.043       .  S
Fe68         O78   1.934       .  S
Fe69         O87   2.026       .  S
Fe69         O74   2.111       .  S
Fe69         O81   2.116       .  S
Fe69         O70   2.038       .  S
Fe69         O78   1.936       .  S
O70          C77   1.265       .  A
O71          C85   1.282       .  A
O72          C77   1.279       .  A
O73          C76   1.261       .  A
O74          C86   1.278       .  A
O75          C88   1.266       .  A
C76          O81   1.278       .  A
C76         C478   1.466       .  S
C77         C718   1.492       .  S
O79          C82   1.284       .  A
O80          C82   1.267       .  A
C82         C421   1.491       .  S
O83          C88   1.276       .  A
O84          C86   1.269       .  A
C85          O87   1.264       .  A
C85         C733   1.491       .  S
C86         C574   1.491       .  S
C88         C598   1.492       .  S
Fe89        O105   2.103       .  S
Fe89         O95   2.023       .  S
Fe89        O102   2.045       .  S
Fe89         O94   2.102       .  S
Fe89        O100   1.938       .  S
Fe90         O93   2.107       .  S
Fe90         O97   2.039       .  S
Fe90        O101   2.109       .  S
Fe90        O106   2.034       .  S
Fe90        O100   1.940       .  S
Fe91        O109   2.035       .  S
Fe91         O96   2.116       .  S
Fe91        O103   2.113       .  S
Fe91         O92   2.042       .  S
Fe91        O100   1.936       .  S
O92          C99   1.266       .  A
O93         C107   1.274       .  A
O94          C99   1.275       .  A
O95          C98   1.265       .  A
O96         C108   1.281       .  A
O97         C110   1.267       .  A
C98         O103   1.278       .  A
C98         C349   1.480       .  S
C99         C397   1.492   1_655  S
O101        C104   1.277       .  A
O102        C104   1.267       .  A
C104        C613   1.483       .  S
O105        C110   1.275       .  A
O106        C108   1.268       .  A
C107        O109   1.263       .  A
C107        C382   1.491       .  S
C108        C325   1.485       .  S
C110        C301   1.493       .  S
Fe111       O127   2.037       .  S
Fe111       O117   2.114       .  S
Fe111       O124   2.097       .  S
Fe111       O116   2.027       .  S
Fe111       O122   1.937       .  S
Fe112       O115   2.052       .  S
Fe112       O119   2.124       .  S
Fe112       O123   2.054       .  S
Fe112       O128   2.116       .  S
Fe112       O122   1.937       .  S
Fe113       O131   2.101       .  S
Fe113       O118   2.034       .  S
Fe113       O125   2.038       .  S
Fe113       O114   2.108       .  S
Fe113       O122   1.944       .  S
O114        C121   1.273       .  A
O115        C129   1.268       .  A
O116        C121   1.258       .  A
O117        C120   1.281       .  A
O118        C130   1.268       .  A
O119        C132   1.283       .  A
C120        O125   1.267       .  A
C120        C214   1.495   1_455  S
C121        C358   1.462       .  S
O123        C126   1.266       .  A
O124        C126   1.273       .  A
C126        C262   1.489       .  S
O127        C132   1.267       .  A
O128        C130   1.281       .  A
C129        O131   1.274       .  A
C129        C286   1.500       .  S
C130        C229   1.481       .  S
C132        C502   1.488       .  S
Fe133       O149   2.025       .  S
Fe133       O139   2.109       .  S
Fe133       O146   2.092       .  S
Fe133       O138   2.019       .  S
Fe133       O144   1.930       .  S
Fe134       O137   2.042       .  S
Fe134       O141   2.129       .  S
Fe134       O145   2.046       .  S
Fe134       O150   2.116       .  S
Fe134       O144   1.931       .  S
Fe135       O153   2.101       .  S
Fe135       O140   2.033       .  S
Fe135       O147   2.036       .  S
Fe135       O136   2.117       .  S
Fe135       O144   1.932       .  S
O136        C143   1.277       .  A
O137        C151   1.266       .  A
O138        C143   1.259       .  A
O139        C142   1.277       .  A
O140        C152   1.267       .  A
O141        C154   1.285       .  A
C142        O147   1.262       .  A
C142        C238   1.495       .  S
C143        C190   1.459       .  S
O145        C148   1.264       .  A
O146        C148   1.271       .  A
C148        C334   1.489       .  S
O149        C154   1.266       .  A
O150        C152   1.281       .  A
C151        O153   1.278       .  A
C151        C310   1.487       .  S
C152        C205   1.482       .  S
C154        C454   1.483       .  S
Fe155       O171   2.107       .  S
Fe155       O161   2.024       .  S
Fe155       O168   2.049       .  S
Fe155       O160   2.117       .  S
Fe155       O166   1.937       .  S
Fe156       O159   2.122       .  S
Fe156       O163   2.043       .  S
Fe156       O167   2.124       .  S
Fe156       O172   2.051       .  S
Fe156       O166   1.939       .  S
Fe157       O175   2.028       .  S
Fe157       O162   2.109       .  S
Fe157       O169   2.112       .  S
Fe157       O158   2.035       .  S
Fe157       O166   1.933       .  S
O158        C165   1.266       .  A
O159        C173   1.279       .  A
O160        C165   1.278       .  A
O161        C164   1.263       .  A
O162        C174   1.279       .  A
O163        C176   1.266       .  A
C164        O169   1.276       .  A
C164        C181   1.481       .  S
C165        C373   1.499       .  S
O167        C170   1.281       .  A
O168        C170   1.268       .  A
C170        C430   1.490       .  S
O171        C176   1.279       .  A
O172        C174   1.270       .  A
C173        O175   1.264       .  A
C173        C406   1.496       .  S
C174        C253   1.485       .  S
C176        C277   1.490       .  S
C177        C178   1.406       .  A
C177        C182   1.402       .  A
C177        H187   1.084       .  S
C178        C183   1.481       .  S
C178        C179   1.410       .  A
C179        C180   1.395       .  A
C179        S184   1.805       .  S
C180        C181   1.407       .  A
C180        H185   1.085       .  S
C181        C182   1.413       .  A
C182        S186   1.800       .  S
C183        C188   1.410       .  A
C183        C192   1.405       .  A
S184        H200   1.406       .  S
S186        H197   1.407       .  S
C188        C189   1.400       .  A
C188        S193   1.807       .  S
C189        C190   1.403       .  A
C189        H194   1.083       .  S
C190        C191   1.408       .  A
C191        C192   1.398       .  A
C191        S195   1.803       .  S
C192        H196   1.084       .  S
S193        H198   1.405       .  S
S195        H199   1.406       .  S
C201        C202   1.405       .  A
C201        C206   1.401       .  A
C201        H211   1.084       .  S
C202        C207   1.484       .  S
C202        C203   1.411       .  A
C203        C204   1.400       .  A
C203        S208   1.804       .  S
C204        C205   1.408       .  A
C204        H209   1.083       .  S
C205        C206   1.413       .  A
C206        S210   1.802       .  S
C207        C212   1.408       .  A
C207        C216   1.400       .  A
S208        H224   1.405       .  S
S210        H221   1.405       .  S
C212        C213   1.403       .  A
C212        S217   1.806       .  S
C213        C214   1.408       .  A
C213        H218   1.082       .  S
C214        C215   1.423       .  A
C215        C216   1.402       .  A
C215        S219   1.804   1_655  S
C216        H220   1.084       .  S
S217        H222   1.406       .  S
S219        H223   1.408       .  S
C225        C226   1.404       .  A
C225        C230   1.401       .  A
C225        H235   1.084       .  S
C226        C231   1.480       .  S
C226        C227   1.409       .  A
C227        C228   1.398       .  A
C227        S232   1.805       .  S
C228        C229   1.408       .  A
C228        H233   1.084       .  S
C229        C230   1.415       .  A
C230        S234   1.802       .  S
C231        C236   1.407       .  A
C231        C240   1.397       .  A
S232        H248   1.406       .  S
S234        H245   1.404       .  S
C236        C237   1.404       .  A
C236        S241   1.805       .  S
C237        C238   1.410       .  A
C237        H242   1.082       .  S
C238        C239   1.425       .  A
C239        C240   1.399       .  A
C239        S243   1.803       .  S
C240        H244   1.084       .  S
S241        H246   1.407       .  S
S243        H247   1.408       .  S
C249        C250   1.403       .  A
C249        C254   1.403       .  A
C249        H259   1.085       .  S
C250        C255   1.486       .  S
C250        C251   1.414       .  A
C251        C252   1.402       .  A
C251        S256   1.804       .  S
C252        C253   1.405       .  A
C252        H257   1.085       .  S
C253        C254   1.416       .  A
C254        S258   1.802       .  S
C255        C260   1.412       .  A
C255        C264   1.398       .  A
S256        H272   1.405       .  S
S258        H269   1.407       .  S
C260        C261   1.410   1_545  A
C260        S265   1.805       .  S
C261        C262   1.407       .  A
C261        H266   1.082       .  S
C262        C263   1.420       .  A
C263        C264   1.398   1_565  A
C263        S267   1.804       .  S
C264        H268   1.084       .  S
S265        H270   1.407       .  S
S267        H271   1.407       .  S
C273        C274   1.401       .  A
C273        C278   1.405       .  A
C273        H283   1.083       .  S
C274        C279   1.487       .  S
C274        C275   1.412       .  A
C275        C276   1.402       .  A
C275        S280   1.802       .  S
C276        C277   1.406       .  A
C276        H281   1.084       .  S
C277        C278   1.419       .  A
C278        S282   1.809       .  S
C279        C284   1.407       .  A
C279        C288   1.402       .  A
S280        H296   1.406       .  S
S282        H293   1.407       .  S
C284        C285   1.405       .  A
C284        S289   1.807       .  S
C285        C286   1.412       .  A
C285        H290   1.081       .  S
C286        C287   1.422       .  A
C287        C288   1.402       .  A
C287        S291   1.801       .  S
C288        H292   1.083       .  S
S289        H294   1.407       .  S
S291        H295   1.408       .  S
C297        C298   1.403       .  A
C297        C302   1.403   1_565  A
C297        H307   1.084       .  S
C298        C303   1.482       .  S
C298        C299   1.409   1_565  A
C299        C300   1.397       .  A
C299        S304   1.805       .  S
C300        C301   1.409       .  A
C300        H305   1.084       .  S
C301        C302   1.419       .  A
C302        S306   1.800       .  S
C303        C308   1.410       .  A
C303        C312   1.401       .  A
S304        H320   1.406   1_545  S
S306        H317   1.407       .  S
C308        C309   1.403       .  A
C308        S313   1.807       .  S
C309        C310   1.406       .  A
C309        H314   1.083       .  S
C310        C311   1.419       .  A
C311        C312   1.400       .  A
C311        S315   1.804       .  S
C312        H316   1.085       .  S
S313        H318   1.407       .  S
S315        H319   1.407       .  S
C321        C322   1.407       .  A
C321        C326   1.405       .  A
C321        H331   1.084       .  S
C322        C327   1.484       .  S
C322        C323   1.409       .  A
C323        C324   1.394       .  A
C323        S328   1.805       .  S
C324        C325   1.408       .  A
C324        H329   1.084       .  S
C325        C326   1.414       .  A
C326        S330   1.802       .  S
C327        C332   1.407       .  A
C327        C336   1.403       .  A
S328        H344   1.406       .  S
S330        H341   1.407       .  S
C332        C333   1.403       .  A
C332        S337   1.807       .  S
C333        C334   1.409       .  A
C333        H338   1.081       .  S
C334        C335   1.418       .  A
C335        C336   1.405       .  A
C335        S339   1.809       .  S
C336        H340   1.082       .  S
S337        H342   1.407       .  S
S339        H343   1.407       .  S
C345        C346   1.406       .  A
C345        C350   1.402       .  A
C345        H355   1.084   1_655  S
C346        C351   1.479   1_645  S
C346        C347   1.410       .  A
C347        C348   1.395       .  A
C347        S352   1.806   1_545  S
C348        C349   1.407       .  A
C348        H353   1.084       .  S
C349        C350   1.413       .  A
C350        S354   1.800       .  S
C351        C356   1.408   1_455  A
C351        C360   1.405       .  A
S352        H368   1.405       .  S
S354        H365   1.406       .  S
C356        C357   1.399   1_655  A
C356        S361   1.806       .  S
C357        C358   1.403       .  A
C357        H362   1.082   1_455  S
C358        C359   1.408       .  A
C359        C360   1.400       .  A
C359        S363   1.804       .  S
C360        H364   1.084       .  S
S361        H366   1.406       .  S
S363        H367   1.406       .  S
C369        C370   1.403       .  A
C369        C374   1.404       .  A
C369        H379   1.084       .  S
C370        C375   1.482       .  S
C370        C371   1.408       .  A
C371        C372   1.398       .  A
C371        S376   1.806       .  S
C372        C373   1.413       .  A
C372        H377   1.084       .  S
C373        C374   1.420       .  A
C374        S378   1.800       .  S
C375        C380   1.406       .  A
C375        C384   1.403       .  A
S376        H392   1.405       .  S
S378        H389   1.408       .  S
C380        C381   1.402       .  A
C380        S385   1.807       .  S
C381        C382   1.411       .  A
C381        H386   1.082       .  S
C382        C383   1.418       .  A
C383        C384   1.403       .  A
C383        S387   1.800       .  S
C384        H388   1.084       .  S
S385        H390   1.407       .  S
S387        H391   1.408       .  S
C393        C394   1.402       .  A
C393        C398   1.402       .  A
C393        H403   1.085       .  S
C394        C399   1.485       .  S
C394        C395   1.411       .  A
C395        C396   1.400       .  A
C395        S400   1.805       .  S
C396        C397   1.410       .  A
C396        H401   1.084       .  S
C397        C398   1.421       .  A
C398        S402   1.802       .  S
C399        C404   1.405       .  A
C399        C408   1.404       .  A
S400        H416   1.405       .  S
S402        H413   1.403       .  S
C404        C405   1.401       .  A
C404        S409   1.808       .  S
C405        C406   1.413       .  A
C405        H410   1.081       .  S
C406        C407   1.418       .  A
C407        C408   1.405       .  A
C407        S411   1.800       .  S
C408        H412   1.083       .  S
S409        H414   1.406       .  S
S411        H415   1.405       .  S
C417        C418   1.403       .  A
C417        C422   1.403       .  A
C417        H427   1.084       .  S
C418        C423   1.496       .  S
C418        C419   1.417       .  A
C419        C420   1.407       .  A
C419        S424   1.803       .  S
C420        C421   1.405       .  A
C420        H425   1.083       .  S
C421        C422   1.419       .  A
C422        S426   1.805       .  S
C423        C428   1.415       .  A
C423        C432   1.403       .  A
S424        H440   1.406       .  S
S426        H437   1.407       .  S
C428        C429   1.410       .  A
C428        S433   1.807       .  S
C429        C430   1.405       .  A
C429        H434   1.083       .  S
C430        C431   1.417       .  A
C431        C432   1.404       .  A
C431        S435   1.804       .  S
C432        H436   1.084       .  S
S433        H438   1.407       .  S
S435        H439   1.405       .  S
C441        C442   1.396       .  A
C441        C446   1.394       .  A
C441        H451   1.085       .  S
C442        C447   1.481       .  S
C442        C443   1.415       .  A
C443        C444   1.408       .  A
C443        S448   1.804       .  S
C444        C445   1.406       .  A
C444        H449   1.084       .  S
C445        C446   1.423       .  A
C446        S450   1.807       .  S
C447        C452   1.411       .  A
C447        C456   1.397       .  A
S448        H464   1.404       .  S
S450        H461   1.407       .  S
C452        C453   1.410       .  A
C452        S457   1.804       .  S
C453        C454   1.406       .  A
C453        H458   1.082       .  S
C454        C455   1.419       .  A
C455        C456   1.395       .  A
C455        S459   1.806       .  S
C456        H460   1.084       .  S
S457        H462   1.407       .  S
S459        H463   1.407       .  S
C465        C466   1.394       .  A
C465        C470   1.393       .  A
C465        H475   1.083       .  S
C466        C471   1.475   1_556  S
C466        C467   1.416   1_556  A
C467        C468   1.406   1_554  A
C467        S472   1.803       .  S
C468        C469   1.402       .  A
C468        H473   1.084   1_556  S
C469        C470   1.419       .  A
C470        S474   1.812       .  S
C471        C476   1.413       .  A
C471        C480   1.400       .  A
S472        H488   1.405       .  S
S474        H485   1.407       .  S
C476        C477   1.400       .  A
C476        S481   1.804   1_554  S
C477        C478   1.403       .  A
C477        H482   1.084       .  S
C478        C479   1.414       .  A
C479        C480   1.395       .  A
C479        S483   1.806       .  S
C480        H484   1.084       .  S
S481        H486   1.404       .  S
S483        H487   1.403       .  S
C489        C490   1.396       .  A
C489        C494   1.398       .  A
C489        H499   1.085       .  S
C490        C495   1.491       .  S
C490        C491   1.415   1_455  A
C491        C492   1.410       .  A
C491        S496   1.803       .  S
C492        C493   1.410       .  A
C492        H497   1.084       .  S
C493        C494   1.430   1_655  A
C494        S498   1.804       .  S
C495        C500   1.414       .  A
C495        C504   1.400       .  A
S496        H512   1.406       .  S
S498        H509   1.408       .  S
C500        C501   1.412       .  A
C500        S505   1.805       .  S
C501        C502   1.405       .  A
C501        H506   1.083       .  S
C502        C503   1.418       .  A
C503        C504   1.399       .  A
C503        S507   1.804       .  S
C504        H508   1.084   1_455  S
S505        H510   1.407       .  S
S507        H511   1.407       .  S
C513        C514   1.400       .  A
C513        C518   1.398       .  A
C513        H523   1.084   1_556  S
C514        C519   1.475   1_556  S
C514        C515   1.413       .  A
C515        C516   1.398       .  A
C515        S520   1.805       .  S
C516        C517   1.401       .  A
C516        H521   1.084       .  S
C517        C518   1.415       .  A
C518        S522   1.806       .  S
C519        C524   1.403       .  A
C519        C528   1.403       .  A
S520        H536   1.403       .  S
S522        H533   1.407       .  S
C524        C525   1.398       .  A
C524        S529   1.808   1_554  S
C525        C526   1.411       .  A
C525        H530   1.081   1_455  S
C526        C527   1.415       .  A
C527        C528   1.403       .  A
C527        S531   1.802       .  S
C528        H532   1.083       .  S
S529        H534   1.407       .  S
S531        H535   1.407       .  S
C537        C538   1.403       .  A
C537        C542   1.400       .  A
C537        H547   1.083       .  S
C538        C543   1.490       .  S
C538        C539   1.415       .  A
C539        C540   1.401       .  A
C539        S544   1.804       .  S
C540        C541   1.406       .  A
C540        H545   1.083       .  S
C541        C542   1.418       .  A
C542        S546   1.804       .  S
C543        C548   1.410       .  A
C543        C552   1.406   1_556  A
S544        H560   1.407       .  S
S546        H557   1.408       .  S
C548        C549   1.403   1_556  A
C548        S553   1.807       .  S
C549        C550   1.409       .  A
C549        H554   1.082       .  S
C550        C551   1.415       .  A
C551        C552   1.403       .  A
C551        S555   1.800       .  S
C552        H556   1.083       .  S
S553        H558   1.407       .  S
S555        H559   1.407       .  S
C561        C562   1.403       .  A
C561        C566   1.403   1_545  A
C561        H571   1.084       .  S
C562        C567   1.482       .  S
C562        C563   1.409   1_545  A
C563        C564   1.398       .  A
C563        S568   1.804   1_565  S
C564        C565   1.409       .  A
C564        H569   1.084       .  S
C565        C566   1.419       .  A
C566        S570   1.799       .  S
C567        C572   1.405       .  A
C567        C576   1.405       .  A
S568        H584   1.405       .  S
S570        H581   1.407       .  S
C572        C573   1.398       .  A
C572        S577   1.808       .  S
C573        C574   1.409       .  A
C573        H578   1.082       .  S
C574        C575   1.417       .  A
C575        C576   1.406       .  A
C575        S579   1.800       .  S
C576        H580   1.084       .  S
S577        H582   1.406       .  S
S579        H583   1.405       .  S
C585        C586   1.407       .  A
C585        C590   1.407       .  A
C585        H595   1.083       .  S
C586        C591   1.491       .  S
C586        C587   1.412       .  A
C587        C588   1.401       .  A
C587        S592   1.805       .  S
C588        C589   1.409       .  A
C588        H593   1.084       .  S
C589        C590   1.415       .  A
C590        S594   1.801       .  S
C591        C596   1.411       .  A
C591        C600   1.403       .  A
S592        H608   1.405       .  S
S594        H605   1.407       .  S
C596        C597   1.406       .  A
C596        S601   1.806       .  S
C597        C598   1.407       .  A
C597        H602   1.083       .  S
C598        C599   1.417       .  A
C599        C600   1.407       .  A
C599        S603   1.808       .  S
C600        H604   1.083       .  S
S601        H606   1.407       .  S
S603        H607   1.407       .  S
C609        C610   1.402   1_455  A
C609        C614   1.400   1_455  A
C609        H619   1.085       .  S
C610        C615   1.486   1_655  S
C610        C611   1.415       .  A
C611        C612   1.403       .  A
C611        S616   1.804       .  S
C612        C613   1.404       .  A
C612        H617   1.085       .  S
C613        C614   1.416       .  A
C614        S618   1.804   1_655  S
C615        C620   1.413       .  A
C615        C624   1.401       .  A
S616        H632   1.405       .  S
S618        H629   1.408   1_455  S
C620        C621   1.406       .  A
C620        S625   1.807       .  S
C621        C622   1.402       .  A
C621        H626   1.083       .  S
C622        C623   1.417       .  A
C623        C624   1.401       .  A
C623        S627   1.805       .  S
C624        H628   1.084   1_455  S
S625        H630   1.406       .  S
S627        H631   1.407       .  S
C633        C634   1.402   1_554  A
C633        C638   1.395       .  A
C633        H643   1.084       .  S
C634        C639   1.497   1_565  S
C634        C635   1.421   1_455  A
C635        C636   1.410   1_556  A
C635        S640   1.804   1_565  S
C636        C637   1.405       .  A
C636        H641   1.084       .  S
C637        C638   1.412   1_655  A
C638        S642   1.795       .  S
C639        C644   1.419       .  A
C639        C648   1.403       .  A
S640        H656   1.406       .  S
S642        H653   1.406       .  S
C644        C645   1.413       .  A
C644        S649   1.806   1_456  S
C645        C646   1.405       .  A
C645        H650   1.083       .  S
C646        C647   1.415       .  A
C647        C648   1.394       .  A
C647        S651   1.805       .  S
C648        H652   1.084   1_545  S
S649        H654   1.407       .  S
S651        H655   1.407       .  S
C657        C658   1.405       .  A
C657        C662   1.406       .  A
C657        H667   1.084       .  S
C658        C663   1.490       .  S
C658        C659   1.409       .  A
C659        C660   1.401       .  A
C659        S664   1.805       .  S
C660        C661   1.413       .  A
C660        H665   1.083       .  S
C661        C662   1.420       .  A
C662        S666   1.799       .  S
C663        C668   1.407       .  A
C663        C672   1.405       .  A
S664        H680   1.405       .  S
S666        H677   1.408       .  S
C668        C669   1.403       .  A
C668        S673   1.807       .  S
C669        C670   1.412       .  A
C669        H674   1.083       .  S
C670        C671   1.420       .  A
C671        C672   1.407       .  A
C671        S675   1.801       .  S
C672        H676   1.085       .  S
S673        H678   1.407       .  S
S675        H679   1.408       .  S
C681        C682   1.403       .  A
C681        C686   1.405       .  A
C681        H691   1.084       .  S
C682        C687   1.489       .  S
C682        C683   1.414       .  A
C683        C684   1.403       .  A
C683        S688   1.803       .  S
C684        C685   1.405       .  A
C684        H689   1.085       .  S
C685        C686   1.416       .  A
C686        S690   1.803       .  S
C687        C692   1.407   1_565  A
C687        C696   1.407   1_565  A
S688        H704   1.405       .  S
S690        H701   1.407       .  S
C692        C693   1.402       .  A
C692        S697   1.807       .  S
C693        C694   1.410       .  A
C693        H698   1.082       .  S
C694        C695   1.414       .  A
C695        C696   1.408       .  A
C695        S699   1.801       .  S
C696        H700   1.083   1_545  S
S697        H702   1.407       .  S
S699        H703   1.407       .  S
C705        C706   1.400   1_554  A
C705        C710   1.402   1_554  A
C705        H715   1.083       .  S
C706        C711   1.487   1_556  S
C706        C707   1.415       .  A
C707        C708   1.403       .  A
C707        S712   1.805       .  S
C708        C709   1.406       .  A
C708        H713   1.084       .  S
C709        C710   1.420       .  A
C710        S714   1.811       .  S
C711        C716   1.410       .  A
C711        C720   1.401       .  A
S712        H728   1.406       .  S
S714        H725   1.406   1_556  S
C716        C717   1.406       .  A
C716        S721   1.807       .  S
C717        C718   1.409       .  A
C717        H722   1.082       .  S
C718        C719   1.419       .  A
C719        C720   1.400       .  A
C719        S723   1.802       .  S
C720        H724   1.083       .  S
S721        H726   1.407       .  S
S723        H727   1.408       .  S
C729        C730   1.400       .  A
C729        C734   1.400   1_556  A
C729        H739   1.082       .  S
C730        C735   1.491       .  S
C730        C731   1.418   1_556  A
C731        C732   1.406       .  A
C731        S736   1.805       .  S
C732        C733   1.406       .  A
C732        H737   1.083       .  S
C733        C734   1.420       .  A
C734        S738   1.810       .  S
C735        C740   1.414       .  A
C735        C744   1.404       .  A
S736        H752   1.406       .  S
S738        H749   1.407   1_554  S
C740        C741   1.407       .  A
C740        S745   1.807       .  S
C741        C742   1.407       .  A
C741        H746   1.082       .  S
C742        C743   1.414       .  A
C743        C744   1.398       .  A
C743        S747   1.804       .  S
C744        H748   1.084       .  S
S745        H750   1.407       .  S
S747        H751   1.407       .  S
