geometry optimzed in LAMMPS
_audit_creation_date              2020-12-01 
_audit_creation_method            'lammps2cif' 
_symmetry_space_group_name_H-M    'P1' 
_symmetry_Int_Tables_number       1 
_symmetry_cell_setting            triclinic 
loop_ 
_symmetry_equiv_pos_as_xyz 
  x,y,z 
_cell_length_a                    74.92865708 
_cell_length_b                    39.73404809632866 
_cell_length_c                    74.95529697968556 
_cell_angle_alpha                 89.93367150262242 
_cell_angle_beta                  89.98484624155476 
_cell_angle_gamma                 89.98056316464553 
loop_ 
_atom_site_label 
_atom_site_type_symbol 
_atom_site_fract_x 
_atom_site_fract_y 
_atom_site_fract_z 
_atom_site_charge 
Zr1        Zr  0.61044081  0.24343175  0.86211299     2.17500
O2          O  0.58622646  0.22267959  0.84333975    -0.51100
O3          O  0.61663470  0.18383242  0.86817027    -0.74300
O4          O  0.61935515  0.23398085  0.83087068    -0.81100
O5          O  0.57609631  0.26894911  0.89779555    -0.82800
O6          O  0.64683494  0.25661489  0.82704477    -0.78500
O7          O  0.57965374  0.23903386  0.87228926    -0.90100
O8          O  0.63730324  0.18025190  0.89020331    -0.76100
O9          O  0.64179970  0.23849804  0.86607016    -0.85600
O10         O  0.61546189  0.24042097  0.89356274    -0.85200
O11         O  0.62240654  0.29386767  0.84885232    -0.72000
O12         O  0.59890214  0.29498983  0.87452369    -0.84100
Zr13       Zr  0.64895295  0.33707812  0.89667843     2.26400
Zr14       Zr  0.65387529  0.28880210  0.85336023     2.06300
Zr15       Zr  0.60472728  0.29224288  0.90580390     2.10000
Zr16       Zr  0.64689159  0.23647999  0.89742324     1.78800
O17         O  0.58019023  0.32752123  0.91598358    -0.92900
O18         O  0.67404392  0.20892253  0.88705107    -0.40800
O19         O  0.63616940  0.28776042  0.91011318    -0.77400
O20         O  0.66035258  0.28516121  0.88463413    -0.96100
O21         O  0.64323982  0.34055241  0.86549247    -0.89400
O22         O  0.61739319  0.34230473  0.89330906    -0.92200
C23         C  0.62651279  0.16695567  0.87902046     1.01500
C24         C  0.57008464  0.25040490  0.88518840     1.14500
C25         C  0.63317184  0.24062331  0.82126165     1.05200
O26         O  0.67952190  0.25405563  0.84568401    -0.94400
O27         O  0.68126498  0.31843831  0.85884726    -0.90100
O28         O  0.67993061  0.34191787  0.88634296    -0.83300
C29         C  0.68837090  0.33395017  0.87199452     1.11900
O30         O  0.58619410  0.34077996  0.84213736    -0.96300
Zr31       Zr  0.61177048  0.34478592  0.86211640     1.88900
O32         O  0.64448010  0.39627734  0.88912902    -0.73000
O33         O  0.65756624  0.32648866  0.82795557    -0.52300
O34         O  0.61769457  0.36874074  0.83277488    -0.96900
O35         O  0.58695638  0.37780983  0.87387605    -0.54200
O36         O  0.62447021  0.39979364  0.86655920    -0.73500
C37         C  0.63566489  0.41296671  0.87738617     0.98800
O38         O  0.66853350  0.36224945  0.91900341    -0.62300
O39         O  0.60053529  0.25175633  0.92993349    -0.57100
O40         O  0.64109850  0.34179405  0.92818209    -0.93800
O41         O  0.61248678  0.32423711  0.93209509    -0.92200
O42         O  0.63988212  0.21216268  0.92647073    -0.92600
O43         O  0.67033587  0.24114179  0.91977721    -0.91400
C44         C  0.62703454  0.33742436  0.93772831     1.17700
H45         H  0.60934891  0.22137027  0.89873233     0.33600
H46         H  0.67297171  0.28236835  0.88672034     0.44500
H47         H  0.61303428  0.36206847  0.89941186     0.38000
H48         H  0.61954309  0.29537951  0.83631948     0.34500
H49         H  0.67248591  0.18483728  0.89005982     0.26300
H50         H  0.66793714  0.31737837  0.82134861     0.32200
H51         H  0.63037303  0.37570860  0.83315441     0.38100
H52         H  0.63194852  0.19281810  0.92399562     0.32600
H53         H  0.59419861  0.26445121  0.93936411     0.31400
H54         H  0.57445054  0.31445549  0.92566929     0.33100
H55         H  0.59242501  0.39541892  0.88144064     0.32100
H56         H  0.67133228  0.26561001  0.92209660     0.36100
H57         H  0.67833382  0.34587639  0.92084344     0.28800
H58         H  0.59063694  0.20155007  0.83790650     0.33100
H59         H  0.58244397  0.36427327  0.83979765     0.35900
H60         H  0.59154782  0.23558987  0.92544472     0.28500
H61         H  0.67417747  0.38185187  0.91310014     0.41400
H62         H  0.68358970  0.26268771  0.83397163     0.31400
H63         H  0.67331862  0.20970890  0.87387171     0.39100
H64         H  0.58088170  0.36258522  0.88239311     0.30900
H65         H  0.64721024  0.32198322  0.82011143     0.31000
H66         H  0.58521560  0.23888680  0.83334043     0.31200
Zr67       Zr  0.61086636  0.73898747  0.86193940     2.17500
O68         O  0.58851912  0.70915440  0.84430405    -0.51100
O69         O  0.61997028  0.68078379  0.86799927    -0.74300
O70         O  0.61905377  0.73289733  0.83039215    -0.81100
O71         O  0.57542101  0.76203246  0.89709973    -0.82800
O72         O  0.64598464  0.75772227  0.82565589    -0.78500
O73         O  0.57977586  0.73376121  0.87115054    -0.90100
O74         O  0.64312258  0.68078881  0.88746242    -0.76100
O75         O  0.64238034  0.73876069  0.86545740    -0.85600
O76         O  0.61641317  0.73687689  0.89331616    -0.85200
O77         O  0.62060879  0.79089151  0.84839599    -0.72000
O78         O  0.59746170  0.78878113  0.87423553    -0.84100
Zr79       Zr  0.64585549  0.83841357  0.89600681     2.26400
Zr80       Zr  0.65231892  0.79034955  0.85234992     2.06300
Zr81       Zr  0.60360529  0.78713752  0.90542588     2.10000
Zr82       Zr  0.64800084  0.73777750  0.89672439     1.78800
O83         O  0.57984206  0.82485248  0.91499979    -0.92900
O84         O  0.67722878  0.71649389  0.88796522    -0.40800
O85         O  0.63519415  0.78721974  0.90938042    -0.77400
O86         O  0.65915197  0.78817253  0.88367948    -0.96100
O87         O  0.63975660  0.84056526  0.86482887    -0.89400
O88         O  0.61411522  0.83890188  0.89290036    -0.92200
C89         C  0.63219154  0.66580688  0.87709088     1.01500
C90         C  0.56983573  0.74416684  0.88398602     1.14500
C91         C  0.63241956  0.74067405  0.82044306     1.05200
O92         O  0.67768805  0.75580194  0.84360283    -0.94400
O93         O  0.67948262  0.82110269  0.85794565    -0.90100
O94         O  0.67640128  0.84728772  0.88469345    -0.83300
C95         C  0.68561588  0.83874607  0.87087816     1.11900
O96         O  0.58488879  0.83571520  0.83911600    -0.96300
Zr97       Zr  0.60815940  0.84022213  0.86171985     1.88900
O98         O  0.63808492  0.89687004  0.88882239    -0.73000
O99         O  0.65497516  0.83105181  0.82817597    -0.52300
O100        O  0.61646692  0.86654745  0.83355614    -0.96900
O101        O  0.57956076  0.86294221  0.87162514    -0.54200
O102        O  0.61526653  0.89764526  0.86898466    -0.73500
C103        C  0.62670135  0.91241532  0.87892643     0.98800
O104        O  0.66489120  0.86490103  0.91834189    -0.62300
O105        O  0.59660634  0.74660055  0.92882465    -0.57100
O106        O  0.63868372  0.84258310  0.92797792    -0.93800
O107        O  0.61302675  0.81371846  0.93278829    -0.92200
O108        O  0.64025457  0.70768230  0.92396744    -0.92600
O109        O  0.66988871  0.74607241  0.92036405    -0.91400
C110        C  0.62610390  0.83178252  0.93822722     1.17700
H111        H  0.61119793  0.71702019  0.89864404     0.33600
H112        H  0.67184144  0.78701752  0.88573664     0.44500
H113        H  0.60889544  0.85791788  0.89900153     0.38000
H114        H  0.61746403  0.79242177  0.83594536     0.34500
H115        H  0.67878131  0.69546946  0.89489942     0.26300
H116        H  0.66681414  0.82657124  0.82281503     0.32200
H117        H  0.62811685  0.87742946  0.83589166     0.38100
H118        H  0.64939356  0.68978571  0.92505955     0.32600
H119        H  0.60832048  0.74031028  0.93394335     0.31400
H120        H  0.57584863  0.81573277  0.92663251     0.33100
H121        H  0.58256473  0.88101254  0.88019365     0.32100
H122        H  0.67555178  0.76798902  0.91762003     0.36100
H123        H  0.67493504  0.84906612  0.92018868     0.28800
H124        H  0.59473139  0.68943242  0.83914471     0.33100
H125        H  0.58109147  0.85911768  0.83658299     0.35900
H126        H  0.59069694  0.75988172  0.93829972     0.28500
H127        H  0.67022284  0.88478290  0.91241976     0.41400
H128        H  0.68390924  0.76907405  0.83430388     0.31400
H129        H  0.67568804  0.70888170  0.87548541     0.39100
H130        H  0.57426672  0.84491402  0.87905834     0.30900
H131        H  0.64630710  0.82358723  0.81903560     0.31000
H132        H  0.58573472  0.72391541  0.83401432     0.31200
Zr133      Zr  0.61066602  0.19394039  0.64770495     2.17500
O134        O  0.58794610  0.22195858  0.66567329    -0.51100
O135        O  0.61818551  0.25268517  0.64114208    -0.74300
O136        O  0.61957838  0.20206530  0.67887306    -0.81100
O137        O  0.57514123  0.17098360  0.61292968    -0.82800
O138        O  0.64661840  0.17747658  0.68253815    -0.78500
O139        O  0.57942073  0.19866621  0.63901240    -0.90100
O140        O  0.63889563  0.25434897  0.61919104    -0.76100
O141        O  0.64200003  0.19686088  0.64269750    -0.85600
O142        O  0.61457658  0.19528652  0.61612194    -0.85200
O143        O  0.62209891  0.14312404  0.66112609    -0.72000
O144        O  0.59787101  0.14283954  0.63629898    -0.84100
Zr145      Zr  0.64637856  0.09649785  0.61286653     2.26400
Zr146      Zr  0.65351697  0.14614755  0.65565140     2.06300
Zr147      Zr  0.60268101  0.14359830  0.60482471     2.10000
Zr148      Zr  0.64578714  0.19733631  0.61106550     1.78800
O149        O  0.57765646  0.10586521  0.59942776    -0.92900
O150        O  0.67459592  0.22363357  0.61684891    -0.40800
O151        O  0.63407109  0.14611010  0.59904424    -0.77400
O152        O  0.65873175  0.14846157  0.62409505    -0.96100
O153        O  0.64163837  0.09461806  0.64428365    -0.89400
O154        O  0.61489829  0.09343094  0.61737913    -0.92200
C155        C  0.62852834  0.26870237  0.63039691     1.01500
C156        C  0.56955019  0.18885725  0.62600660     1.14500
C157        C  0.63326279  0.19444127  0.68840468     1.05200
O158        O  0.67892260  0.18171451  0.66292890    -0.94400
O159        O  0.68090776  0.11699409  0.64862992    -0.90100
O160        O  0.67796177  0.09255370  0.62143034    -0.83300
C161        C  0.68729969  0.10140444  0.63507583     1.11900
O162        O  0.59003321  0.09690469  0.67416583    -0.96300
Zr163      Zr  0.61018518  0.09261610  0.64874012     1.88900
O164        O  0.63867272  0.03794169  0.61963839    -0.73000
O165        O  0.65894531  0.10771944  0.68040856    -0.52300
O166        O  0.62129682  0.06132520  0.67444654    -0.96900
O167        O  0.58026209  0.07277249  0.64147712    -0.54200
O168        O  0.61548952  0.03589124  0.63907006    -0.73500
C169        C  0.62688751  0.02192387  0.62876818     0.98800
O170        O  0.66681875  0.06219832  0.59514064    -0.62300
O171        O  0.59540355  0.17952780  0.57946995    -0.57100
O172        O  0.63813536  0.09391727  0.58122798    -0.93800
O173        O  0.60936095  0.11099245  0.57842245    -0.92200
O174        O  0.63471512  0.22419559  0.58404879    -0.92600
O175        O  0.66713597  0.19185596  0.58673609    -0.91400
C176        C  0.62366191  0.09771659  0.57220116     1.17700
H177        H  0.60859893  0.21454849  0.61099761     0.33600
H178        H  0.67122993  0.15117343  0.62140111     0.44500
H179        H  0.60973690  0.07412542  0.61150292     0.38000
H180        H  0.61948512  0.14164778  0.67370958     0.34500
H181        H  0.67420154  0.24525701  0.61027328     0.26300
H182        H  0.66725477  0.11998610  0.68834798     0.32200
H183        H  0.63212442  0.04952393  0.67016866     0.38100
H184        H  0.62985791  0.20550432  0.57680795     0.32600
H185        H  0.58395965  0.17053807  0.57491186     0.31400
H186        H  0.56981759  0.11815077  0.59101407     0.33100
H187        H  0.58177458  0.05873552  0.63067965     0.32100
H188        H  0.66218814  0.17390613  0.57903484     0.36100
H189        H  0.65936650  0.04465179  0.58944350     0.28800
H190        H  0.59377271  0.24206217  0.67085254     0.33100
H191        H  0.58607578  0.07359108  0.67665456     0.35900
H192        H  0.59222017  0.20163879  0.58464354     0.28500
H193        H  0.67089258  0.07673746  0.58520337     0.41400
H194        H  0.68490190  0.18586246  0.65135319     0.31400
H195        H  0.67413344  0.23020229  0.62957513     0.39100
H196        H  0.57379199  0.09297886  0.63722637     0.30900
H197        H  0.64754165  0.10711796  0.68707682     0.31000
H198        H  0.58554443  0.20683085  0.67590586     0.31200
Zr199      Zr  0.60945946  0.69373085  0.64731458     2.17500
O200        O  0.58637713  0.72117715  0.66508417    -0.51100
O201        O  0.61530137  0.75273801  0.64016707    -0.74300
O202        O  0.61829839  0.70219993  0.67844711    -0.81100
O203        O  0.57490067  0.66736374  0.61236889    -0.82800
O204        O  0.64679074  0.68393891  0.68177099    -0.78500
O205        O  0.57798315  0.69457070  0.63877121    -0.90100
O206        O  0.63619766  0.75503366  0.61838120    -0.76100
O207        O  0.64074036  0.69923160  0.64245279    -0.85600
O208        O  0.61394497  0.69522089  0.61582527    -0.85200
O209        O  0.62222647  0.64446216  0.66106314    -0.72000
O210        O  0.59801004  0.64148939  0.63606671    -0.84100
Zr211      Zr  0.64797451  0.59880724  0.61309700     2.26400
Zr212      Zr  0.65359072  0.65016935  0.65574090     2.06300
Zr213      Zr  0.60325699  0.64273049  0.60467737     2.10000
Zr214      Zr  0.64520883  0.69916248  0.61098767     1.78800
O215        O  0.58040963  0.60130834  0.59752774    -0.92900
O216        O  0.67235031  0.72993545  0.61840011    -0.40800
O217        O  0.63455772  0.64720792  0.59941417    -0.77400
O218        O  0.65931510  0.65162074  0.62420421    -0.96100
O219        O  0.64311890  0.59726079  0.64454240    -0.89400
O220        O  0.61653588  0.59360467  0.61744165    -0.92200
C221        C  0.62528807  0.76891159  0.62917117     1.01500
C222        C  0.56859351  0.68423071  0.62550768     1.14500
C223        C  0.63255736  0.69787241  0.68772550     1.05200
O224        O  0.67865865  0.68705053  0.66256490    -0.94400
O225        O  0.68136819  0.62175609  0.65004252    -0.90100
O226        O  0.67909336  0.59547375  0.62330092    -0.83300
C227        C  0.68807913  0.60531460  0.63698412     1.11900
O228        O  0.58898860  0.59339600  0.67204857    -0.96300
Zr229      Zr  0.61172573  0.59279860  0.64879219     1.88900
O230        O  0.64232535  0.53959773  0.62011789    -0.73000
O231        O  0.65862106  0.61450266  0.68168097    -0.52300
O232        O  0.62266280  0.56950860  0.67683499    -0.96900
O233        O  0.58370214  0.56600910  0.64038391    -0.54200
O234        O  0.62031747  0.53654179  0.64085125    -0.73500
C235        C  0.63163328  0.52307205  0.63027511     0.98800
O236        O  0.66769134  0.57130058  0.59165222    -0.62300
O237        O  0.59509308  0.68168092  0.58085835    -0.57100
O238        O  0.64036947  0.59510835  0.58125760    -0.93800
O239        O  0.61241399  0.61578317  0.57738697    -0.92200
O240        O  0.63425412  0.72107554  0.58266220    -0.92600
O241        O  0.66771288  0.69614987  0.58759702    -0.91400
C242        C  0.62667113  0.60189076  0.57148698     1.17700
H243        H  0.60759068  0.71378260  0.61043415     0.33600
H244        H  0.67183399  0.65457034  0.62165302     0.44500
H245        H  0.61192684  0.57366245  0.61170299     0.38000
H246        H  0.61966359  0.64287443  0.67364464     0.34500
H247        H  0.66944573  0.74231594  0.62948453     0.26300
H248        H  0.66806581  0.62619659  0.68852120     0.32200
H249        H  0.62108751  0.54485914  0.67576851     0.38100
H250        H  0.64064057  0.74265382  0.58096730     0.32600
H251        H  0.60483768  0.68003946  0.57198094     0.31400
H252        H  0.57517834  0.60920126  0.58614000     0.33100
H253        H  0.58678584  0.55044793  0.63055029     0.32100
H254        H  0.66885118  0.67181536  0.58499014     0.36100
H255        H  0.67736182  0.58763482  0.58915935     0.28800
H256        H  0.59206021  0.74131805  0.67038195     0.33100
H257        H  0.58724358  0.56954862  0.67549295     0.35900
H258        H  0.58466521  0.67119621  0.57496576     0.28500
H259        H  0.67350899  0.55262667  0.59820322     0.41400
H260        H  0.67363051  0.71010030  0.66243356     0.31400
H261        H  0.68100882  0.71256956  0.62224814     0.39100
H262        H  0.57668410  0.58408092  0.63458449     0.30900
H263        H  0.64774525  0.61706384  0.68906005     0.31000
H264        H  0.58400499  0.70591306  0.67526777     0.31200
Zr265      Zr  0.39873561  0.18988825  0.86099574     2.17500
O266        O  0.42058304  0.22079766  0.84322250    -0.51100
O267        O  0.39078370  0.24807895  0.86786563    -0.74300
O268        O  0.38981418  0.19676017  0.82950226    -0.81100
O269        O  0.43428854  0.16863401  0.89678477    -0.82800
O270        O  0.36240145  0.17344405  0.82566180    -0.78500
O271        O  0.42989595  0.19483158  0.87020435    -0.90100
O272        O  0.36990838  0.25008243  0.88969374    -0.76100
O273        O  0.36747723  0.19326066  0.86611610    -0.85600
O274        O  0.39469827  0.19097342  0.89261171    -0.85200
O275        O  0.38709900  0.13935471  0.84761498    -0.72000
O276        O  0.41181624  0.13899433  0.87248664    -0.84100
Zr277      Zr  0.36293535  0.09258931  0.89566040     2.26400
Zr278      Zr  0.35563005  0.14319852  0.85300338     2.06300
Zr279      Zr  0.40683596  0.13946868  0.90403040     2.10000
Zr280      Zr  0.36340501  0.19305404  0.89767281     1.78800
O281        O  0.43095623  0.09935949  0.90878823    -0.92900
O282        O  0.33494442  0.22020391  0.89128726    -0.40800
O283        O  0.37541870  0.14198473  0.90924645    -0.77400
O284        O  0.35028411  0.14440955  0.88459308    -0.96100
O285        O  0.36771624  0.09147863  0.86423499    -0.89400
O286        O  0.39449213  0.08945089  0.89141864    -0.92200
C287        C  0.38036315  0.26411849  0.87848962     1.01500
C288        C  0.43971915  0.18651120  0.88357432     1.14500
C289        C  0.37609544  0.18946895  0.81986657     1.05200
O290        O  0.33188669  0.18353122  0.84699519    -0.94400
O291        O  0.32803605  0.11434766  0.85961439    -0.90100
O292        O  0.33174487  0.08669003  0.88585161    -0.83300
C293        C  0.32213159  0.09638051  0.87255482     1.11900
O294        O  0.41937535  0.09428655  0.83459482    -0.96300
Zr295      Zr  0.39924184  0.08900810  0.86002345     1.88900
O296        O  0.37043909  0.03407846  0.88844343    -0.73000
O297        O  0.34873598  0.10618413  0.82808848    -0.52300
O298        O  0.38889351  0.05675629  0.83435173    -0.96900
O299        O  0.42877408  0.06780146  0.86777180    -0.54200
O300        O  0.39397556  0.03218611  0.86943125    -0.73500
C301        C  0.38227658  0.01811099  0.87933128     0.98800
O302        O  0.34413857  0.06196940  0.91677263    -0.62300
O303        O  0.41545975  0.17521554  0.92896536    -0.57100
O304        O  0.37006246  0.09060364  0.92759299    -0.93800
O305        O  0.39797904  0.11179929  0.93167532    -0.92200
O306        O  0.37443239  0.21815433  0.92517315    -0.92600
O307        O  0.34139531  0.18625441  0.92132806    -0.91400
C308        C  0.38367777  0.09756144  0.93739939     1.17700
H309        H  0.40066579  0.21011876  0.89785544     0.33600
H310        H  0.33775762  0.14657585  0.88733072     0.44500
H311        H  0.39952369  0.06998186  0.89728018     0.38000
H312        H  0.38970036  0.13757384  0.83505549     0.34500
H313        H  0.33448588  0.23981902  0.89941585     0.26300
H314        H  0.34098110  0.11971888  0.82014609     0.32200
H315        H  0.37761832  0.04602696  0.83825065     0.38100
H316        H  0.36527165  0.23492855  0.92857342     0.32600
H317        H  0.40408878  0.18103964  0.93493805     0.31400
H318        H  0.43678409  0.10688687  0.91994185     0.33100
H319        H  0.42711572  0.05554828  0.87915912     0.32100
H320        H  0.34182040  0.16200383  0.92435600     0.36100
H321        H  0.33382672  0.07682813  0.91930088     0.28800
H322        H  0.41410777  0.24032971  0.83816025     0.33100
H323        H  0.42322721  0.07105044  0.83177119     0.35900
H324        H  0.42163203  0.16007128  0.93745947     0.28500
H325        H  0.33912880  0.04269897  0.91006894     0.41400
H326        H  0.32463566  0.18386923  0.85803646     0.31400
H327        H  0.33644429  0.23018076  0.87926965     0.39100
H328        H  0.43576257  0.08801343  0.87104401     0.30900
H329        H  0.36012709  0.10398439  0.82148927     0.31000
H330        H  0.42341599  0.20625216  0.83288274     0.31200
Zr331      Zr  0.39852823  0.68942610  0.85857250     2.17500
O332        O  0.42216264  0.71028613  0.83904260    -0.51100
O333        O  0.39192093  0.74845928  0.86502851    -0.74300
O334        O  0.38837990  0.69912831  0.82766684    -0.81100
O335        O  0.43276558  0.67263522  0.89595553    -0.82800
O336        O  0.36309304  0.66891168  0.82353216    -0.78500
O337        O  0.42906981  0.69705717  0.86873943    -0.90100
O338        O  0.36949313  0.74951155  0.88527120    -0.76100
O339        O  0.36698995  0.69009530  0.86224854    -0.85600
O340        O  0.39314582  0.69270012  0.88998150    -0.85200
O341        O  0.38855879  0.63721643  0.84575990    -0.72000
O342        O  0.41182976  0.64028604  0.87181943    -0.84100
Zr343      Zr  0.36280892  0.59179647  0.89373671     2.26400
Zr344      Zr  0.35684030  0.63769412  0.85021376     2.06300
Zr345      Zr  0.40538628  0.64276270  0.90301887     2.10000
Zr346      Zr  0.36168464  0.69284281  0.89353992     1.78800
O347        O  0.43093649  0.60829149  0.91136136    -0.92900
O348        O  0.33350661  0.71767127  0.88402243    -0.40800
O349        O  0.37373417  0.64311016  0.90688682    -0.77400
O350        O  0.35003105  0.64223962  0.88129981    -0.96100
O351        O  0.36947194  0.58785644  0.86276688    -0.89400
O352        O  0.39462836  0.59098521  0.89080883    -0.92200
C353        C  0.38084782  0.76414572  0.87515668     1.01500
C354        C  0.43848118  0.68958980  0.88251764     1.14500
C355        C  0.37527704  0.68880854  0.81795421     1.05200
O356        O  0.33084835  0.67106562  0.84204635    -0.94400
O357        O  0.32951206  0.60761076  0.85605530    -0.90100
O358        O  0.33137538  0.58640788  0.88405699    -0.83300
C359        C  0.32252273  0.59371988  0.86980581     1.11900
O360        O  0.42660209  0.59215351  0.83948441    -0.96300
Zr361      Zr  0.40118080  0.58861270  0.85975891     1.88900
O362        O  0.37009657  0.53355383  0.88605652    -0.73000
O363        O  0.35302357  0.59752753  0.82599114    -0.52300
O364        O  0.39409254  0.56288226  0.83113774    -0.96900
O365        O  0.42866430  0.56341615  0.87113879    -0.54200
O366        O  0.39331211  0.53173984  0.86671577    -0.73500
C367        C  0.38151871  0.51759532  0.87645432     0.98800
O368        O  0.34454528  0.55931709  0.91450314    -0.62300
O369        O  0.40885602  0.68099758  0.92819589    -0.57100
O370        O  0.36980172  0.58884732  0.92560190    -0.93800
O371        O  0.39734342  0.61149916  0.92962963    -0.92200
O372        O  0.36882709  0.71768710  0.92237333    -0.92600
O373        O  0.33779454  0.68929660  0.91548211    -0.91400
C374        C  0.38352304  0.59560837  0.93527087     1.17700
H375        H  0.39858079  0.71252345  0.89509829     0.33600
H376        H  0.33739131  0.64457489  0.88335480     0.44500
H377        H  0.39967144  0.57205076  0.89714492     0.38000
H378        H  0.39155222  0.63594801  0.83324468     0.34500
H379        H  0.33243299  0.73872368  0.89100197     0.26300
H380        H  0.34314925  0.60681459  0.81871968     0.32200
H381        H  0.38298667  0.54999578  0.83328226     0.38100
H382        H  0.37671477  0.73700509  0.91965849     0.32600
H383        H  0.41830465  0.67065465  0.93563161     0.31400
H384        H  0.43590690  0.61934127  0.92209853     0.33100
H385        H  0.42494831  0.54792304  0.88080025     0.32100
H386        H  0.33707910  0.66507072  0.91851309     0.36100
H387        H  0.33439108  0.57408290  0.91771791     0.28800
H388        H  0.41791444  0.73231946  0.83454420     0.33100
H389        H  0.42923003  0.56866591  0.83592314     0.35900
H390        H  0.41447670  0.70148934  0.92320280     0.28500
H391        H  0.33922590  0.54088608  0.90738655     0.41400
H392        H  0.32756412  0.66321553  0.82995168     0.31400
H393        H  0.33568242  0.72532941  0.87163905     0.39100
H394        H  0.43488701  0.58198759  0.87735124     0.30900
H395        H  0.36376598  0.60030696  0.81844145     0.31000
H396        H  0.42224723  0.69526984  0.82850716     0.31200
Zr397      Zr  0.39762960  0.23541547  0.64635748     2.17500
O398        O  0.41993872  0.20482347  0.66372718    -0.51100
O399        O  0.39139304  0.17670977  0.63914289    -0.74300
O400        O  0.38889581  0.22766085  0.67758813    -0.81100
O401        O  0.43223578  0.26074061  0.61091060    -0.82800
O402        O  0.36023427  0.24518084  0.68093347    -0.78500
O403        O  0.42884364  0.23454540  0.63761566    -0.90100
O404        O  0.37307733  0.17378908  0.61512884    -0.76100
O405        O  0.36641894  0.23028888  0.64169616    -0.85600
O406        O  0.39330582  0.23391222  0.61484559    -0.85200
O407        O  0.38547318  0.28498542  0.66032485    -0.72000
O408        O  0.40950355  0.28727243  0.63485937    -0.84100
Zr409      Zr  0.35966956  0.33106421  0.61216652     2.26400
Zr410      Zr  0.35414106  0.27990647  0.65500569     2.06300
Zr411      Zr  0.40405679  0.28617088  0.60350199     2.10000
Zr412      Zr  0.36206784  0.22992157  0.61018979     1.78800
O413        O  0.42824869  0.32460003  0.59593695    -0.92900
O414        O  0.33582262  0.19972293  0.62082304    -0.40800
O415        O  0.37265012  0.28215360  0.59822280    -0.77400
O416        O  0.34869268  0.27793130  0.62347049    -0.96100
O417        O  0.36483543  0.33255373  0.64361962    -0.89400
O418        O  0.39120721  0.33550612  0.61640840    -0.92200
C419        C  0.38290006  0.16027809  0.62710057     1.01500
C420        C  0.43828954  0.24408340  0.62422952     1.14500
C421        C  0.37457555  0.23154163  0.68681832     1.05200
O422        O  0.32904000  0.24493346  0.66399373    -0.94400
O423        O  0.32580917  0.30522150  0.64842313    -0.90100
O424        O  0.32786252  0.33157576  0.62158000    -0.83300
C425        C  0.31885081  0.32069031  0.63514765     1.11900
O426        O  0.41956376  0.33093410  0.67040007    -0.96300
Zr427      Zr  0.39634071  0.33624509  0.64775025     1.88900
O428        O  0.36680143  0.39030266  0.61891451    -0.73000
O429        O  0.35009297  0.31932364  0.67953554    -0.52300
O430        O  0.38623236  0.36182347  0.67552779    -0.96900
O431        O  0.42410288  0.36417158  0.63937990    -0.54200
O432        O  0.38827391  0.39284478  0.64014975    -0.73500
C433        C  0.37739415  0.40673992  0.62928092     0.98800
O434        O  0.33758243  0.36217697  0.59482451    -0.62300
O435        O  0.41053476  0.24690427  0.57939887    -0.57100
O436        O  0.36789727  0.33490948  0.58019143    -0.93800
O437        O  0.39601890  0.31468006  0.57640588    -0.92200
O438        O  0.36866941  0.20791226  0.58058845    -0.92600
O439        O  0.33734305  0.23353161  0.58919272    -0.91400
C440        C  0.38177982  0.32859187  0.57053261     1.17700
H441        H  0.39972262  0.21541511  0.60948384     0.33600
H442        H  0.33625741  0.27415612  0.62089650     0.44500
H443        H  0.39596681  0.35527638  0.61060584     0.38000
H444        H  0.38806401  0.28657930  0.67290003     0.34500
H445        H  0.33386846  0.18164521  0.61195660     0.26300
H446        H  0.33872138  0.31240364  0.68518051     0.32200
H447        H  0.39123270  0.38489120  0.67542105     0.38100
H448        H  0.37966531  0.19436587  0.58204890     0.32600
H449        H  0.39989295  0.24768860  0.57158389     0.31400
H450        H  0.43135713  0.31920400  0.58342150     0.33100
H451        H  0.42105008  0.37862813  0.62905600     0.32100
H452        H  0.33561180  0.25796505  0.58723038     0.36100
H453        H  0.34414698  0.38128637  0.58944207     0.28800
H454        H  0.41358235  0.18552368  0.66917424     0.33100
H455        H  0.42086808  0.35357178  0.67574889     0.35900
H456        H  0.42008074  0.25790146  0.57236390     0.28500
H457        H  0.33442422  0.34743850  0.58465972     0.41400
H458        H  0.32516107  0.23369109  0.65287324     0.31400
H459        H  0.33985751  0.18770915  0.63167642     0.39100
H460        H  0.43160363  0.34608359  0.63425338     0.30900
H461        H  0.35937298  0.31315156  0.68835342     0.31000
H462        H  0.42306249  0.21970441  0.67384565     0.31200
Zr463      Zr  0.39679930  0.73632614  0.64501280     2.17500
O464        O  0.42024520  0.71415208  0.66432811    -0.51100
O465        O  0.38972346  0.67749568  0.63927229    -0.74300
O466        O  0.38676072  0.72814887  0.67597471    -0.81100
O467        O  0.43155628  0.75369987  0.60858794    -0.82800
O468        O  0.36043477  0.75536687  0.67986152    -0.78500
O469        O  0.42764874  0.72910982  0.63565279    -0.90100
O470        O  0.36822124  0.67504008  0.61800445    -0.76100
O471        O  0.36536536  0.73462038  0.64071783    -0.85600
O472        O  0.39205088  0.73269835  0.61352064    -0.85200
O473        O  0.38627408  0.78808332  0.65777477    -0.72000
O474        O  0.41005241  0.78556211  0.63201488    -0.84100
Zr475      Zr  0.36129325  0.83277290  0.60918741     2.26400
Zr476      Zr  0.35474452  0.78655932  0.65288901     2.06300
Zr477      Zr  0.40425883  0.78277501  0.60072098     2.10000
Zr478      Zr  0.36067849  0.73176113  0.60929963     1.78800
O479        O  0.42963222  0.81811154  0.59290843    -0.92900
O480        O  0.33218600  0.70638155  0.61724821    -0.40800
O481        O  0.37272904  0.78168866  0.59625007    -0.77400
O482        O  0.34845321  0.78216255  0.62157503    -0.96100
O483        O  0.36711870  0.83660994  0.64033782    -0.89400
O484        O  0.39297368  0.83427037  0.61270406    -0.92200
C485        C  0.37911053  0.66125520  0.62896104     1.01500
C486        C  0.43724590  0.73677977  0.62203069     1.14500
C487        C  0.37329654  0.73709140  0.68556598     1.05200
O488        O  0.32887186  0.75374515  0.66202002    -0.94400
O489        O  0.32791411  0.81755458  0.64684687    -0.90100
O490        O  0.33031728  0.84064939  0.61930272    -0.83300
C491        C  0.32136632  0.83321273  0.63343186     1.11900
O492        O  0.42070739  0.83323805  0.66776229    -0.96300
Zr493      Zr  0.39869943  0.83679096  0.64388560     1.88900
O494        O  0.36783720  0.89146128  0.61670273    -0.73000
O495        O  0.35165011  0.82741516  0.67690625    -0.52300
O496        O  0.38996053  0.86817297  0.67043717    -0.96900
O497        O  0.42774227  0.85727560  0.63396793    -0.54200
O498        O  0.39221656  0.89294913  0.63454120    -0.73500
C499        C  0.37988841  0.90729865  0.62556724     0.98800
O500        O  0.34159485  0.85704048  0.58662234    -0.62300
O501        O  0.40942283  0.74377957  0.57619536    -0.57100
O502        O  0.37022449  0.84004291  0.57800264    -0.93800
O503        O  0.39637055  0.81248793  0.57358468    -0.92200
O504        O  0.36949105  0.70400469  0.58170717    -0.92600
O505        O  0.33913439  0.73764048  0.58517341    -0.91400
C506        C  0.38341514  0.83094366  0.56810860     1.17700
H507        H  0.39770837  0.71299315  0.60852683     0.33600
H508        H  0.33579746  0.78046776  0.61938680     0.44500
H509        H  0.39807543  0.85321290  0.60644241     0.38000
H510        H  0.38908607  0.78968595  0.67031570     0.34500
H511        H  0.33209403  0.68448310  0.61095315     0.26300
H512        H  0.34128183  0.81941130  0.68391787     0.32200
H513        H  0.37982386  0.88251862  0.66667821     0.38100
H514        H  0.36505155  0.68063275  0.58284227     0.32600
H515        H  0.39779954  0.74232344  0.56996870     0.31400
H516        H  0.43350147  0.80994016  0.58104764     0.33100
H517        H  0.42520122  0.87193587  0.62358662     0.32100
H518        H  0.33629338  0.76197822  0.58486735     0.36100
H519        H  0.33166710  0.84082659  0.58514326     0.28800
H520        H  0.41537870  0.69317937  0.66955815     0.33100
H521        H  0.42482148  0.85662087  0.66974424     0.35900
H522        H  0.41724283  0.75616513  0.56780568     0.28500
H523        H  0.33616030  0.87724683  0.59212371     0.41400
H524        H  0.32222119  0.74948957  0.65083719     0.31400
H525        H  0.33342893  0.70037586  0.63001005     0.39100
H526        H  0.43374468  0.83733622  0.62880382     0.30900
H527        H  0.36206101  0.82346451  0.68476652     0.31000
H528        H  0.42116804  0.73012348  0.67441960     0.31200
Zr529      Zr  0.89649784  0.98064528  0.64298151     2.17500
O530        O  0.91820665  0.94901001  0.66062456    -0.51100
O531        O  0.88859357  0.92227643  0.63646798    -0.74300
O532        O  0.88818214  0.97460436  0.67435706    -0.81100
O533        O  0.93161039  0.00364780  0.60717076    -0.82800
O534        O  0.86046034  0.99656001  0.67839247    -0.78500
O535        O  0.92784238  0.97788199  0.63394818    -0.90100
O536        O  0.86668678  0.92130778  0.61564372    -0.76100
O537        O  0.86493548  0.97921264  0.63946302    -0.85600
O538        O  0.89090330  0.97818395  0.61168858    -0.85200
O539        O  0.88596705  0.03205491  0.65644302    -0.72000
O540        O  0.90951894  0.03054999  0.63056024    -0.84100
Zr541      Zr  0.86086826  0.07925140  0.60860468     2.26400
Zr542      Zr  0.85430675  0.03062757  0.65216460     2.06300
Zr543      Zr  0.90323895  0.02867287  0.59937865     2.10000
Zr544      Zr  0.85932774  0.97817291  0.60822653     1.78800
O545        O  0.92612362  0.06882798  0.59048819    -0.92900
O546        O  0.83168506  0.95220978  0.61852376    -0.40800
O547        O  0.87163089  0.02806746  0.59546573    -0.77400
O548        O  0.84775673  0.02860373  0.62082768    -0.96100
O549        O  0.86665603  0.08116251  0.63984188    -0.89400
O550        O  0.89248652  0.08026183  0.61187351    -0.92200
C551        C  0.87761439  0.90678863  0.62620340     1.01500
C552        C  0.93752524  0.98700604  0.62060808     1.14500
C553        C  0.87438298  0.98093876  0.68396016     1.05200
O554        O  0.82782684  0.99747197  0.65894404    -0.94400
O555        O  0.82762251  0.06289903  0.64653965    -0.90100
O556        O  0.83024014  0.08707327  0.61921978    -0.83300
C557        C  0.82125680  0.07941104  0.63327497     1.11900
O558        O  0.92116087  0.07573062  0.66595795    -0.96300
Zr559      Zr  0.89822056  0.08143395  0.64311448     1.88900
O560        O  0.86814488  0.13796754  0.61592553    -0.73000
O561        O  0.85112320  0.06796417  0.67771547    -0.52300
O562        O  0.89024653  0.10860833  0.67113015    -0.96900
O563        O  0.92652172  0.10495368  0.63299146    -0.54200
O564        O  0.89060203  0.13859976  0.63615972    -0.73500
C565        C  0.87929246  0.15342110  0.62610505     0.98800
O566        O  0.84213386  0.10817484  0.58680282    -0.62300
O567        O  0.90967509  0.98942713  0.57521446    -0.57100
O568        O  0.86811012  0.08221917  0.57663235    -0.93800
O569        O  0.89361246  0.05289285  0.57155900    -0.92200
O570        O  0.86705377  0.95270714  0.57972814    -0.92600
O571        O  0.83542488  0.98218383  0.58629272    -0.91400
C572        C  0.88046601  0.07092885  0.56627339     1.17700
H573        H  0.89631704  0.95851370  0.60639006     0.33600
H574        H  0.83508350  0.02715904  0.61872759     0.44500
H575        H  0.89758371  0.09944490  0.60580575     0.38000
H576        H  0.88895134  0.03378752  0.66892559     0.34500
H577        H  0.83008357  0.93221540  0.61081220     0.26300
H578        H  0.84115474  0.05827171  0.68470632     0.32200
H579        H  0.87802282  0.11738290  0.66924125     0.38100
H580        H  0.85983604  0.93185714  0.57917030     0.32600
H581        H  0.91892246  0.00079155  0.56794806     0.31400
H582        H  0.93078340  0.06008889  0.57903565     0.33100
H583        H  0.92333964  0.12151619  0.62364195     0.32100
H584        H  0.83008667  0.00468944  0.58819018     0.36100
H585        H  0.83163562  0.09345236  0.58494783     0.28800
H586        H  0.91161139  0.92969494  0.66576276     0.33100
H587        H  0.92525127  0.09893512  0.66849132     0.35900
H588        H  0.91598842  0.97027367  0.58083603     0.28500
H589        H  0.83744983  0.12834915  0.59297761     0.41400
H590        H  0.82163485  0.99486569  0.64735935     0.31400
H591        H  0.83458337  0.94274792  0.63040313     0.39100
H592        H  0.93238112  0.08636504  0.62643734     0.30900
H593        H  0.86185266  0.06380741  0.68510560     0.31000
H594        H  0.92128730  0.96344132  0.67094020     0.31200
Zr595      Zr  0.89847567  0.48389949  0.64155731     2.17500
O596        O  0.92221386  0.45712027  0.65879741    -0.51100
O597        O  0.89138500  0.42441540  0.63655141    -0.74300
O598        O  0.89166345  0.47961040  0.67347946    -0.81100
O599        O  0.93194174  0.50453084  0.60404489    -0.82800
O600        O  0.86439806  0.50302059  0.67809590    -0.78500
O601        O  0.92923884  0.48051673  0.63142913    -0.90100
O602        O  0.86988970  0.42083166  0.61540529    -0.76100
O603        O  0.86686173  0.48072421  0.63918308    -0.85600
O604        O  0.89207206  0.47867442  0.61048424    -0.85200
O605        O  0.88802294  0.53617994  0.65410293    -0.72000
O606        O  0.91033108  0.53333175  0.62739375    -0.84100
Zr607      Zr  0.86046855  0.57769080  0.60595285     2.26400
Zr608      Zr  0.85624552  0.53296095  0.65101861     2.06300
Zr609      Zr  0.90321101  0.52850883  0.59644353     2.10000
Zr610      Zr  0.86043517  0.47679099  0.60810010     1.78800
O611        O  0.92719408  0.56397435  0.58512560    -0.92900
O612        O  0.83401755  0.44921431  0.62023134    -0.40800
O613        O  0.87152035  0.52607001  0.59353390    -0.77400
O614        O  0.84873205  0.52775297  0.62000479    -0.96100
O615        O  0.86738312  0.58285440  0.63690256    -0.89400
O616        O  0.89221657  0.58054696  0.60813728    -0.92200
C617        C  0.88098015  0.40754020  0.62625873     1.01500
C618        C  0.93837225  0.48914234  0.61766726     1.14500
C619        C  0.87836107  0.48732645  0.68351875     1.05200
O620        O  0.83035409  0.49902978  0.65888474    -0.94400
O621        O  0.82874196  0.56296193  0.64586777    -0.90100
O622        O  0.83051310  0.58704811  0.61845105    -0.83300
C623        C  0.82197223  0.57953614  0.63284483     1.11900
O624        O  0.92358119  0.58469842  0.66045472    -0.96300
Zr625      Zr  0.89904807  0.58492422  0.63906206     1.88900
O626        O  0.86703334  0.63717291  0.61117011    -0.73000
O627        O  0.85283243  0.57199519  0.67584454    -0.52300
O628        O  0.89130167  0.61420288  0.66658149    -0.96900
O629        O  0.92677273  0.60832426  0.62733398    -0.54200
O630        O  0.89025595  0.64062371  0.63047245    -0.73500
C631        C  0.87834800  0.65393068  0.62050573     0.98800
O632        O  0.83869495  0.59610104  0.58379643    -0.62300
O633        O  0.90672867  0.48606931  0.57323352    -0.57100
O634        O  0.86754253  0.58294227  0.57394564    -0.93800
O635        O  0.89346791  0.55490106  0.56901985    -0.92200
O636        O  0.86655658  0.45058343  0.57939377    -0.92600
O637        O  0.83490677  0.47819120  0.58799248    -0.91400
C638        C  0.88017183  0.57254776  0.56362913     1.17700
H639        H  0.89765114  0.45888973  0.60545647     0.33600
H640        H  0.83598716  0.52597404  0.61844155     0.44500
H641        H  0.89692856  0.59935042  0.60143986     0.38000
H642        H  0.89149545  0.53902248  0.66640221     0.34500
H643        H  0.83204335  0.42946721  0.61242720     0.26300
H644        H  0.84341294  0.56189245  0.68341280     0.32200
H645        H  0.87870109  0.62112532  0.66503827     0.38100
H646        H  0.85984804  0.42911636  0.57965728     0.32600
H647        H  0.91189823  0.49827878  0.56293921     0.31400
H648        H  0.93011501  0.55455528  0.57325560     0.33100
H649        H  0.92326912  0.62890223  0.62075237     0.32100
H650        H  0.83241435  0.50242825  0.58619343     0.36100
H651        H  0.82894596  0.57928987  0.58422112     0.28800
H652        H  0.91662270  0.43762407  0.66484806     0.33100
H653        H  0.92604117  0.60866801  0.66311233     0.35900
H654        H  0.91649036  0.47125771  0.57742790     0.28500
H655        H  0.83341816  0.61714799  0.58850376     0.41400
H656        H  0.83500205  0.47581734  0.66008976     0.31400
H657        H  0.83797346  0.43938140  0.63171039     0.39100
H658        H  0.93054223  0.59234967  0.61793970     0.30900
H659        H  0.86391386  0.56962805  0.68293195     0.31000
H660        H  0.92525178  0.47306689  0.66847958     0.31200
Zr661      Zr  0.89995632  0.44988807  0.85883132     2.17500
O662        O  0.92300303  0.48021420  0.84235815    -0.51100
O663        O  0.89433603  0.50865697  0.86688223    -0.74300
O664        O  0.89269563  0.45767079  0.82714943    -0.81100
O665        O  0.93396066  0.42137218  0.89423051    -0.82800
O666        O  0.86468228  0.43775264  0.82222318    -0.78500
O667        O  0.93142494  0.44817807  0.86765224    -0.90100
O668        O  0.87236837  0.51106514  0.88766273    -0.76100
O669        O  0.86838150  0.45495995  0.86230010    -0.85600
O670        O  0.89419206  0.45110446  0.89017257    -0.85200
O671        O  0.88791192  0.40047751  0.84452747    -0.72000
O672        O  0.91141356  0.39785364  0.87040137    -0.84100
Zr673      Zr  0.86145710  0.35397575  0.89161124     2.26400
Zr674      Zr  0.85632222  0.40553389  0.84855986     2.06300
Zr675      Zr  0.90506485  0.39893646  0.90154975     2.10000
Zr676      Zr  0.86266626  0.45456682  0.89364615     1.78800
O677        O  0.92707407  0.35765192  0.91121116    -0.92900
O678        O  0.83519268  0.48217548  0.88414568    -0.40800
O679        O  0.87362025  0.40296179  0.90584393    -0.77400
O680        O  0.84980200  0.40643672  0.87997145    -0.96100
O681        O  0.86710158  0.35306860  0.86025034    -0.89400
O682        O  0.89294740  0.34941522  0.88815010    -0.92200
C683        C  0.88400581  0.52486308  0.87754620     1.01500
C684        C  0.94062615  0.43746073  0.88100782     1.14500
C685        C  0.87911059  0.45223786  0.81706343     1.05200
O686        O  0.83185149  0.44353322  0.84120851    -0.94400
O687        O  0.82849333  0.37629089  0.85393824    -0.90100
O688        O  0.83088287  0.34945096  0.88058554    -0.83300
C689        C  0.82194815  0.35895936  0.86682078     1.11900
O690        O  0.92187799  0.35353118  0.83432704    -0.96300
Zr691      Zr  0.89859963  0.34910225  0.85694794     1.88900
O692        O  0.86612653  0.29514238  0.88314478    -0.73000
O693        O  0.85167836  0.37096770  0.82214930    -0.52300
O694        O  0.88964478  0.32365872  0.82875777    -0.96900
O695        O  0.92633137  0.32183185  0.86600218    -0.54200
O696        O  0.88913186  0.29281701  0.86363439    -0.73500
C697        C  0.87708842  0.27886318  0.87316373     0.98800
O698        O  0.84135317  0.32879875  0.91346632    -0.62300
O699        O  0.91220199  0.43839542  0.92536366    -0.57100
O700        O  0.86979295  0.34407864  0.92309892    -0.93800
O701        O  0.89584926  0.37122795  0.92840188    -0.92200
O702        O  0.86872725  0.47972769  0.92266808    -0.92600
O703        O  0.83903669  0.44650072  0.91559796    -0.91400
C704        C  0.88279494  0.35277003  0.93341150     1.17700
H705        H  0.90023827  0.46972625  0.89585349     0.33600
H706        H  0.83717861  0.40902602  0.88209216     0.44500
H707        H  0.89749474  0.32938787  0.89389871     0.38000
H708        H  0.89100135  0.39873301  0.83207417     0.34500
H709        H  0.83403411  0.50194024  0.89209876     0.26300
H710        H  0.84770012  0.34885847  0.82676966     0.32200
H711        H  0.87790523  0.31316008  0.83116246     0.38100
H712        H  0.87900366  0.49497172  0.92077352     0.32600
H713        H  0.90101537  0.44052877  0.93230675     0.31400
H714        H  0.93387150  0.36902410  0.92078862     0.33100
H715        H  0.92273814  0.30020978  0.87149893     0.32100
H716        H  0.83665424  0.42198119  0.91551714     0.36100
H717        H  0.83134869  0.34486931  0.91486267     0.28800
H718        H  0.91693850  0.49963683  0.83670844     0.33100
H719        H  0.92435530  0.33016406  0.83046179     0.35900
H720        H  0.92041026  0.42590471  0.93332689     0.28500
H721        H  0.83611294  0.30886886  0.90752500     0.41400
H722        H  0.82447601  0.43106000  0.83247527     0.31400
H723        H  0.83799293  0.49186885  0.87229883     0.39100
H724        H  0.93076175  0.33552109  0.87609494     0.30900
H725        H  0.84095626  0.38061285  0.81635564     0.31000
H726        H  0.92646150  0.46532661  0.83234409     0.31200
Zr727      Zr  0.89561119  0.94995034  0.85776064     2.17500
O728        O  0.91810131  0.97859579  0.83974112    -0.51100
O729        O  0.88717403  0.00870468  0.86249586    -0.74300
O730        O  0.88726398  0.95463152  0.82644617    -0.81100
O731        O  0.93090163  0.93110832  0.89339163    -0.82800
O732        O  0.85950777  0.93262767  0.82302105    -0.78500
O733        O  0.92672925  0.95502416  0.86620194    -0.90100
O734        O  0.86765839  0.01108424  0.88555046    -0.76100
O735        O  0.86417989  0.95155710  0.86175275    -0.85600
O736        O  0.89082383  0.95416933  0.88914620    -0.85200
O737        O  0.88532155  0.89777590  0.84509210    -0.72000
O738        O  0.90892523  0.90081331  0.87083608    -0.84100
Zr739      Zr  0.86061365  0.85325516  0.89387673     2.26400
Zr740      Zr  0.85381267  0.89941536  0.84969612     2.06300
Zr741      Zr  0.90319323  0.90437300  0.90206477     2.10000
Zr742      Zr  0.85937259  0.95437509  0.89312252     1.78800
O743        O  0.92924837  0.87269119  0.91190692    -0.92900
O744        O  0.83230334  0.98207029  0.88263390    -0.40800
O745        O  0.87163112  0.90483476  0.90662402    -0.77400
O746        O  0.84770252  0.90361298  0.88110504    -0.96100
O747        O  0.86619812  0.84937043  0.86259931    -0.89400
O748        O  0.89223939  0.85243371  0.89028232    -0.92200
C749        C  0.87738272  0.02495679  0.87361051     1.01500
C750        C  0.93651312  0.94711341  0.87960261     1.14500
C751        C  0.87337873  0.94792350  0.81709041     1.05200
O752        O  0.82704888  0.92909741  0.84003883    -0.94400
O753        O  0.82678362  0.86953585  0.85644133    -0.90100
O754        O  0.82934279  0.84631070  0.88399479    -0.83300
C755        C  0.82022697  0.85432238  0.87001058     1.11900
O756        O  0.91972732  0.85584068  0.83533520    -0.96300
Zr757      Zr  0.89781077  0.84921358  0.85910930     1.88900
O758        O  0.86838232  0.79451798  0.88746593    -0.73000
O759        O  0.85209152  0.85864143  0.82554586    -0.52300
O760        O  0.88965227  0.81735815  0.83256443    -0.96900
O761        O  0.92697774  0.82910418  0.86885842    -0.54200
O762        O  0.89212586  0.79256108  0.86874687    -0.73500
C763        C  0.88042479  0.77846377  0.87867814     0.98800
O764        O  0.84190119  0.82484650  0.91589253    -0.62300
O765        O  0.90560357  0.94654741  0.92549164    -0.57100
O766        O  0.86959527  0.84870125  0.92541348    -0.93800
O767        O  0.89664386  0.87348513  0.92903778    -0.92200
O768        O  0.86619336  0.98010052  0.92177867    -0.92600
O769        O  0.83456388  0.94856048  0.91388148    -0.91400
C770        C  0.88332242  0.85652534  0.93492942     1.17700
H771        H  0.89639395  0.97408447  0.89401248     0.33600
H772        H  0.83509010  0.90561501  0.88341803     0.44500
H773        H  0.89750459  0.83374317  0.89663711     0.38000
H774        H  0.88818898  0.89554643  0.83260022     0.34500
H775        H  0.83118662  0.00246851  0.89013187     0.26300
H776        H  0.84178621  0.86613027  0.81829038     0.32200
H777        H  0.87905872  0.80401004  0.83607388     0.38100
H778        H  0.85990134  0.00201521  0.92154688     0.32600
H779        H  0.89580426  0.94119159  0.93389316     0.31400
H780        H  0.93449104  0.88634970  0.92162483     0.33100
H781        H  0.92460889  0.81539146  0.87963652     0.32100
H782        H  0.83751108  0.92829937  0.92100182     0.36100
H783        H  0.83156018  0.83986836  0.91795759     0.28800
H784        H  0.91197238  0.99810114  0.83424545     0.33100
H785        H  0.92417893  0.83286898  0.83281636     0.35900
H786        H  0.91662163  0.94052098  0.93204137     0.28500
H787        H  0.83696168  0.80483086  0.90977632     0.41400
H788        H  0.82190048  0.93851419  0.85113095     0.31400
H789        H  0.83533739  0.99078792  0.87062866     0.39100
H790        H  0.93314368  0.84937881  0.87342434     0.30900
H791        H  0.86262777  0.86336397  0.81797370     0.31000
H792        H  0.92083858  0.96324844  0.82969911     0.31200
Zr793      Zr  0.10999243  0.98026419  0.85926562     2.17500
O794        O  0.08753940  0.95300576  0.84058135    -0.51100
O795        O  0.11518858  0.92093225  0.86648052    -0.74300
O796        O  0.11927671  0.97238423  0.82818728    -0.81100
O797        O  0.07472502  0.00912230  0.89267494    -0.82800
O798        O  0.14721753  0.99328173  0.82463170    -0.78500
O799        O  0.07825044  0.98116142  0.86653787    -0.90100
O800        O  0.13666342  0.91805491  0.88764736    -0.76100
O801        O  0.14121751  0.97475639  0.86451789    -0.85600
O802        O  0.11375582  0.97795205  0.89093255    -0.85200
O803        O  0.12271505  0.03026288  0.84616112    -0.72000
O804        O  0.09849467  0.03214856  0.87091511    -0.84100
Zr805      Zr  0.14783085  0.07454551  0.89477644     2.26400
Zr806      Zr  0.15399276  0.02447721  0.85170796     2.06300
Zr807      Zr  0.10320374  0.03051301  0.90238435     2.10000
Zr808      Zr  0.14491296  0.97386784  0.89618133     1.78800
O809        O  0.08072956  0.07269886  0.90950347    -0.92900
O810        O  0.17303850  0.94422739  0.89142358    -0.40800
O811        O  0.13447794  0.02574999  0.90824871    -0.77400
O812        O  0.15896434  0.02183962  0.88334108    -0.96100
O813        O  0.14325986  0.07689629  0.86328927    -0.89400
O814        O  0.11646030  0.08009901  0.89021500    -0.92200
C815        C  0.12550263  0.90440966  0.87702540     1.01500
C816        C  0.06856887  0.99282655  0.87927830     1.14500
C817        C  0.13327932  0.97813744  0.81874776     1.05200
O818        O  0.17871075  0.98686725  0.84488780    -0.94400
O819        O  0.18182316  0.05184530  0.85862627    -0.90100
O820        O  0.17905397  0.07837085  0.88528038    -0.83300
C821        C  0.18830132  0.06820138  0.87184230     1.11900
O822        O  0.09209631  0.08235229  0.83301671    -0.96300
Zr823      Zr  0.11188403  0.08152498  0.85882987     1.88900
O824        O  0.14153192  0.13392517  0.88874556    -0.73000
O825        O  0.16046557  0.06236164  0.82697717    -0.52300
O826        O  0.12226950  0.11115793  0.83233038    -0.96900
O827        O  0.08233832  0.10222200  0.86710575    -0.54200
O828        O  0.11920235  0.13753278  0.86841516    -0.73500
C829        C  0.13058247  0.15079083  0.87901213     0.98800
O830        O  0.17183457  0.09780190  0.91301485    -0.62300
O831        O  0.09256422  0.99311563  0.92588484    -0.57100
O832        O  0.13915021  0.08191320  0.92616232    -0.93800
O833        O  0.11232107  0.05656621  0.93002938    -0.92200
O834        O  0.13209322  0.95236040  0.92378713    -0.92600
O835        O  0.16583839  0.97351762  0.92102823    -0.91400
C836        C  0.12571868  0.07332236  0.93587152     1.17700
H837        H  0.10725435  0.95930170  0.89611424     0.33600
H838        H  0.17144147  0.01881399  0.88605505     0.44500
H839        H  0.11172714  0.09973521  0.89616923     0.38000
H840        H  0.12026235  0.03218491  0.83356828     0.34500
H841        H  0.17111485  0.93047663  0.88058931     0.26300
H842        H  0.16989139  0.05075192  0.82005968     0.32200
H843        H  0.13401422  0.12062439  0.83569131     0.38100
H844        H  0.13176951  0.92761398  0.92232520     0.32600
H845        H  0.10332102  0.98743322  0.93292598     0.31400
H846        H  0.07625749  0.06633109  0.92146772     0.33100
H847        H  0.08410890  0.11438196  0.87848494     0.32100
H848        H  0.16644147  0.99728639  0.92493423     0.36100
H849        H  0.16710433  0.11911648  0.91795837     0.28800
H850        H  0.09337611  0.93286031  0.83543882     0.33100
H851        H  0.08674218  0.10514524  0.83278712     0.35900
H852        H  0.08542925  0.00769167  0.93387016     0.28500
H853        H  0.17308314  0.08254329  0.92339696     0.41400
H854        H  0.17770095  0.96847496  0.85373991     0.31400
H855        H  0.18168162  0.96169066  0.88767531     0.39100
H856        H  0.07539456  0.08195749  0.87042065     0.30900
H857        H  0.14975940  0.06135558  0.81925702     0.31000
H858        H  0.08548878  0.96831583  0.83034325     0.31200
Zr859      Zr  0.11453947  0.47883466  0.86045885     2.17500
O860        O  0.09293873  0.44910404  0.84188054    -0.51100
O861        O  0.12242117  0.42045136  0.86739791    -0.74300
O862        O  0.12276880  0.47564049  0.82853779    -0.81100
O863        O  0.07958826  0.49730456  0.89684900    -0.82800
O864        O  0.14738446  0.50731610  0.82325250    -0.78500
O865        O  0.08336662  0.47319884  0.86965816    -0.90100
O866        O  0.14630520  0.41892067  0.88595297    -0.76100
O867        O  0.14623598  0.48028530  0.86273247    -0.85600
O868        O  0.12125111  0.47387917  0.89160254    -0.85200
O869        O  0.12277093  0.53273947  0.84823280    -0.72000
O870        O  0.10075253  0.52594211  0.87500654    -0.84100
Zr871      Zr  0.14876847  0.57717533  0.89598598     2.26400
Zr872      Zr  0.15456915  0.53440441  0.85118974     2.06300
Zr873      Zr  0.10808184  0.52162187  0.90591516     2.10000
Zr874      Zr  0.15290253  0.47634393  0.89381202     1.78800
O875        O  0.08474230  0.55534005  0.91977456    -0.92900
O876        O  0.18129406  0.45577913  0.88231397    -0.40800
O877        O  0.13981600  0.52384612  0.90832676    -0.77400
O878        O  0.16239341  0.52894960  0.88208680    -0.96100
O879        O  0.14130329  0.58228185  0.86522343    -0.89400
O880        O  0.11692474  0.57535810  0.89435688    -0.92200
C881        C  0.13422283  0.40457743  0.87660725     1.01500
C882        C  0.07366106  0.48124894  0.88316315     1.14500
C883        C  0.13485521  0.48768976  0.81806270     1.05200
O884        O  0.18089117  0.50488543  0.84029178    -0.94400
O885        O  0.18155628  0.56485438  0.85742811    -0.90100
O886        O  0.17891085  0.58912390  0.88465843    -0.83300
C887        C  0.18789015  0.58158796  0.87055786     1.11900
O888        O  0.08525080  0.57390242  0.84212032    -0.96300
Zr889      Zr  0.10957409  0.57922173  0.86353455     1.88900
O890        O  0.14031359  0.63553072  0.88979046    -0.73000
O891        O  0.15663065  0.57911063  0.82905824    -0.52300
O892        O  0.11353747  0.61153425  0.83614144    -0.96900
O893        O  0.08114347  0.59595018  0.87661751    -0.54200
O894        O  0.11581032  0.63617257  0.87203531    -0.73500
C895        C  0.12791362  0.65088333  0.88114839     0.98800
O896        O  0.16852426  0.60097208  0.91858349    -0.62300
O897        O  0.10371034  0.47687057  0.92779393    -0.57100
O898        O  0.14212140  0.58140018  0.92779017    -0.93800
O899        O  0.11901448  0.54606024  0.93355476    -0.92200
O900        O  0.14853477  0.44848877  0.92245848    -0.92600
O901        O  0.17773387  0.48304758  0.91448478    -0.91400
C902        C  0.13111125  0.56700001  0.93850354     1.17700
H903        H  0.11652802  0.45336587  0.89664575     0.33600
H904        H  0.17513526  0.52833377  0.88384188     0.44500
H905        H  0.11161101  0.59337960  0.90117791     0.38000
H906        H  0.11907661  0.53523090  0.83597039     0.34500
H907        H  0.18245120  0.43269388  0.88716503     0.26300
H908        H  0.16689740  0.57267395  0.82147320     0.32200
H909        H  0.12486994  0.62395349  0.83778672     0.38100
H910        H  0.14368254  0.46619749  0.93038270     0.32600
H911        H  0.09702888  0.48761005  0.93766017     0.31400
H912        H  0.07857700  0.53969971  0.92801407     0.33100
H913        H  0.08385392  0.61599514  0.88396035     0.32100
H914        H  0.17756562  0.50721518  0.91770086     0.36100
H915        H  0.17908422  0.58598526  0.91899221     0.28800
H916        H  0.09966551  0.43131206  0.83553316     0.33100
H917        H  0.07967436  0.59647258  0.84142896     0.35900
H918        H  0.09501805  0.46124691  0.92230031     0.28500
H919        H  0.17294078  0.62248642  0.91357646     0.41400
H920        H  0.17715171  0.48109068  0.83916879     0.31400
H921        H  0.17928013  0.45251561  0.86938572     0.39100
H922        H  0.07835017  0.57806303  0.88538477     0.30900
H923        H  0.14605681  0.57601833  0.82131695     0.31000
H924        H  0.08925214  0.46529219  0.83251782     0.31200
Zr925      Zr  0.11072595  0.44173693  0.64361429     2.17500
O926        O  0.08816575  0.47262375  0.66044203    -0.51100
O927        O  0.11935362  0.49983047  0.63706108    -0.74300
O928        O  0.11886121  0.44887355  0.67527494    -0.81100
O929        O  0.07595148  0.42287468  0.60721528    -0.82800
O930        O  0.14511906  0.42184211  0.67964421    -0.78500
O931        O  0.07964358  0.44669612  0.63450027    -0.90100
O932        O  0.14269360  0.49928624  0.61786050    -0.76100
O933        O  0.14225229  0.44252893  0.63971453    -0.85600
O934        O  0.11598826  0.44307204  0.61210557    -0.85200
O935        O  0.12068095  0.39014469  0.65726278    -0.72000
O936        O  0.09711915  0.39192291  0.63146351    -0.84100
Zr937      Zr  0.14532591  0.34198584  0.60983638     2.26400
Zr938      Zr  0.15239297  0.39113086  0.65278428     2.06300
Zr939      Zr  0.10313245  0.39266122  0.60013048     2.10000
Zr940      Zr  0.14751637  0.44248085  0.60835484     1.78800
O941        O  0.07803764  0.35635883  0.59267178    -0.92900
O942        O  0.17721495  0.46423928  0.61491137    -0.40800
O943        O  0.13471179  0.39272118  0.59595013    -0.77400
O944        O  0.15891684  0.39227296  0.62147514    -0.96100
O945        O  0.13950054  0.34067423  0.64102465    -0.89400
O946        O  0.11365981  0.34135405  0.61314843    -0.92200
C947        C  0.13140150  0.51460504  0.62769151     1.01500
C948        C  0.07016076  0.43921350  0.62079640     1.14500
C949        C  0.13199174  0.43959881  0.68524809     1.05200
O950        O  0.17704629  0.43014268  0.65713950    -0.94400
O951        O  0.17901015  0.35820673  0.64780786    -0.90100
O952        O  0.17549696  0.33164853  0.62124486    -0.83300
C953        C  0.18478899  0.33975872  0.63502108     1.11900
O954        O  0.08417001  0.34562484  0.66647700    -0.96300
Zr955      Zr  0.10792992  0.34084490  0.64437119     1.88900
O956        O  0.13765263  0.28378498  0.61719472    -0.73000
O957        O  0.15933423  0.35604221  0.67854915    -0.52300
O958        O  0.11600972  0.31621567  0.67304397    -0.96900
O959        O  0.07957958  0.31716608  0.63445316    -0.54200
O960        O  0.11588023  0.28335835  0.63822246    -0.73500
C961        C  0.12697769  0.26850831  0.62792760     0.98800
O962        O  0.16510647  0.31697222  0.58763396    -0.62300
O963        O  0.09818006  0.42842078  0.57414251    -0.57100
O964        O  0.13767709  0.33550983  0.57836662    -0.93800
O965        O  0.11087832  0.36084454  0.57365104    -0.92200
O966        O  0.13836803  0.47310897  0.58173508    -0.92600
O967        O  0.16911925  0.43530325  0.58436170    -0.91400
C968        C  0.12428861  0.34327893  0.56846615     1.17700
H969        H  0.11070627  0.46284325  0.60676669     0.33600
H970        H  0.17160717  0.39286759  0.61930012     0.44500
H971        H  0.10846096  0.32211223  0.60724070     0.38000
H972        H  0.11758819  0.38872171  0.66973330     0.34500
H973        H  0.17762669  0.48658155  0.60905345     0.26300
H974        H  0.16906223  0.36805052  0.68481526     0.32200
H975        H  0.12773658  0.30537660  0.67101576     0.38100
H976        H  0.13193297  0.45628264  0.57444313     0.32600
H977        H  0.08759748  0.41863414  0.56818085     0.31400
H978        H  0.07017019  0.37035215  0.58507287     0.33100
H979        H  0.08272592  0.30049686  0.62516588     0.32100
H980        H  0.16459613  0.41599733  0.57735403     0.36100
H981        H  0.17505140  0.33315354  0.58616740     0.28800
H982        H  0.09440399  0.49235596  0.66554282     0.33100
H983        H  0.08051564  0.32223097  0.66923191     0.35900
H984        H  0.09392186  0.45016742  0.57896620     0.28500
H985        H  0.17046346  0.29687310  0.59333427     0.41400
H986        H  0.18013868  0.42816630  0.66993557     0.31400
H987        H  0.17699039  0.46937442  0.62782340     0.39100
H988        H  0.07366674  0.33567245  0.62786266     0.30900
H989        H  0.14887525  0.35796918  0.68656135     0.31000
H990        H  0.08514912  0.45824299  0.67081434     0.31200
Zr991      Zr  0.10968449  0.93834982  0.64460336     2.17500
O992        O  0.08638066  0.96230355  0.66353324    -0.51100
O993        O  0.11627514  0.99774840  0.63895168    -0.74300
O994        O  0.11837494  0.94414772  0.67603676    -0.81100
O995        O  0.07543905  0.91587457  0.60842058    -0.82800
O996        O  0.14593202  0.92134857  0.67999374    -0.78500
O997        O  0.07869619  0.94345816  0.63468388    -0.90100
O998        O  0.13789156  0.00159377  0.61786697    -0.76100
O999        O  0.14117278  0.94244357  0.64074829    -0.85600
O1000       O  0.11503823  0.94279105  0.61330270    -0.85200
O1001       O  0.12131676  0.88688889  0.65712413    -0.72000
O1002       O  0.09774215  0.88778858  0.63173020    -0.84100
Zr1003     Zr  0.14762814  0.84454082  0.60864456     2.26400
Zr1004     Zr  0.15295689  0.89121608  0.65276215     2.06300
Zr1005     Zr  0.10388458  0.89190593  0.60059739     2.10000
Zr1006     Zr  0.14648616  0.94557986  0.60942019     1.78800
O1007       O  0.08003580  0.85467387  0.59076803    -0.92900
O1008       O  0.17387257  0.97335603  0.61892352    -0.40800
O1009       O  0.13538330  0.89523488  0.59609687    -0.77400
O1010       O  0.15943413  0.89563490  0.62145774    -0.96100
O1011       O  0.14186922  0.84011556  0.63987810    -0.89400
O1012       O  0.11600053  0.84068905  0.61212754    -0.92200
C1013       C  0.12686540  0.01470244  0.62887619     1.01500
C1014       C  0.06927407  0.93335449  0.62136871     1.14500
C1015       C  0.13203150  0.93678803  0.68567655     1.05200
O1016       O  0.17794937  0.92855905  0.65904885    -0.94400
O1017       O  0.18016400  0.86057330  0.64705295    -0.90100
O1018       O  0.17841447  0.83790690  0.61934900    -0.83300
C1019       C  0.18707410  0.84543581  0.63362413     1.11900
O1020       O  0.08563876  0.83603814  0.66445792    -0.96300
Zr1021     Zr  0.11032500  0.83698696  0.64324285     1.88900
O1022       O  0.14225587  0.78499841  0.61495469    -0.73000
O1023       O  0.15863466  0.85475197  0.67829946    -0.52300
O1024       O  0.12011027  0.81186815  0.67127535    -0.96900
O1025       O  0.08298353  0.80986923  0.63297744    -0.54200
O1026       O  0.11929371  0.78135908  0.63454003    -0.73500
C1027       C  0.13109890  0.76813080  0.62443515     0.98800
O1028       O  0.16796797  0.82287011  0.58594943    -0.62300
O1029       O  0.09683613  0.93352472  0.57778670    -0.57100
O1030       O  0.13937000  0.83864434  0.57703647    -0.93800
O1031       O  0.11302721  0.86577007  0.57317131    -0.92200
O1032       O  0.13768217  0.96995426  0.58091924    -0.92600
O1033       O  0.16988371  0.94494924  0.58683088    -0.91400
C1034       C  0.12620703  0.84855949  0.56728119     1.17700
H1035       H  0.10908442  0.96215535  0.60824689     0.33600
H1036       H  0.17208536  0.89800002  0.61942576     0.44500
H1037       H  0.11126326  0.82156954  0.60573600     0.38000
H1038       H  0.11839123  0.88443632  0.66958914     0.34500
H1039       H  0.17369649  0.99552698  0.61287489     0.26300
H1040       H  0.16778391  0.86676456  0.68538575     0.32200
H1041       H  0.11740941  0.78757730  0.67012517     0.38100
H1042       H  0.14292644  0.99282600  0.58091614     0.32600
H1043       H  0.10674413  0.93207581  0.56908648     0.31400
H1044       H  0.07593914  0.86432306  0.57929102     0.33100
H1045       H  0.08666839  0.79467993  0.62318697     0.32100
H1046       H  0.17680949  0.92422415  0.58926154     0.36100
H1047       H  0.17796925  0.83911819  0.58529973     0.28800
H1048       H  0.09150756  0.98315813  0.66862578     0.33100
H1049       H  0.08474382  0.81241886  0.66860141     0.35900
H1050       H  0.08638213  0.92417848  0.57141824     0.28500
H1051       H  0.17318117  0.80205368  0.59102715     0.41400
H1052       H  0.18580074  0.92691861  0.64845686     0.31400
H1053       H  0.17191160  0.97869876  0.63167106     0.39100
H1054       H  0.07620382  0.82800738  0.62695630     0.30900
H1055       H  0.14766487  0.85591505  0.68564409     0.31000
H1056       H  0.08497418  0.94674779  0.67377290     0.31200
Zr1057     Zr  0.36208655  0.09701419  0.11214293     2.17500
O1058       O  0.33996013  0.06813304  0.09381825    -0.51100
O1059       O  0.36722378  0.03820165  0.12020959    -0.74300
O1060       O  0.37170141  0.08831884  0.08096426    -0.81100
O1061       O  0.32722884  0.12382904  0.14656057    -0.82800
O1062       O  0.39878500  0.11262998  0.07709099    -0.78500
O1063       O  0.33022550  0.09785341  0.11976889    -0.90100
O1064       O  0.38950833  0.03550414  0.14061133    -0.76100
O1065       O  0.39357480  0.09325005  0.11644024    -0.85600
O1066       O  0.36698012  0.09470147  0.14366830    -0.85200
O1067       O  0.37390434  0.14755684  0.09883590    -0.72000
O1068       O  0.35010917  0.14818076  0.12433420    -0.84100
Zr1069     Zr  0.39911042  0.19324608  0.14675199     2.26400
Zr1070     Zr  0.40547420  0.14393432  0.10384456     2.06300
Zr1071     Zr  0.35570706  0.14620228  0.15566305     2.10000
Zr1072     Zr  0.39843606  0.09204683  0.14786303     1.78800
O1073       O  0.33207797  0.18459718  0.16476291    -0.92900
O1074       O  0.42643658  0.06546478  0.13915890    -0.40800
O1075       O  0.38712034  0.14318937  0.16015174    -0.77400
O1076       O  0.41142204  0.14150244  0.13525040    -0.96100
O1077       O  0.39386623  0.19564991  0.11543805    -0.89400
O1078       O  0.36758806  0.19670600  0.14301828    -0.92200
C1079       C  0.37773149  0.02182859  0.13061608     1.01500
C1080       C  0.32077618  0.10847951  0.13297316     1.14500
C1081       C  0.38535617  0.09591016  0.07129856     1.05200
O1082       O  0.43076284  0.10738204  0.09737915    -0.94400
O1083       O  0.43288107  0.17400467  0.10955769    -0.90100
O1084       O  0.42972377  0.20023853  0.13622192    -0.83300
C1085       C  0.43893101  0.19171345  0.12248996     1.11900
O1086       O  0.33659664  0.19452663  0.09186419    -0.96300
Zr1087     Zr  0.36232946  0.19814071  0.11168116     1.88900
O1088       O  0.39305985  0.25220170  0.13918529    -0.73000
O1089       O  0.41042199  0.18135701  0.07857279    -0.52300
O1090       O  0.36957735  0.21913228  0.08197440    -0.96900
O1091       O  0.33629067  0.22934615  0.12216235    -0.54200
O1092       O  0.37211115  0.25458697  0.11741246    -0.73500
C1093       C  0.38302604  0.26844205  0.12822690     0.98800
O1094       O  0.41880050  0.21962606  0.16858103    -0.62300
O1095       O  0.34821889  0.10594324  0.17903673    -0.57100
O1096       O  0.39172280  0.19844157  0.17846530    -0.93800
O1097       O  0.36516997  0.17257385  0.18323421    -0.92200
O1098       O  0.39016306  0.06690308  0.17636469    -0.92600
O1099       O  0.42112374  0.09638147  0.17102745    -0.91400
C1100       C  0.37875533  0.18939900  0.18866052     1.17700
H1101       H  0.36089579  0.07575333  0.14898500     0.33600
H1102       H  0.42404157  0.13957221  0.13761839     0.44500
H1103       H  0.36281704  0.21628290  0.14898730     0.38000
H1104       H  0.37116421  0.14900910  0.08628110     0.34500
H1105       H  0.42733090  0.04518742  0.14680079     0.26300
H1106       H  0.41988723  0.17024426  0.07148373     0.32200
H1107       H  0.36659874  0.24340283  0.08228777     0.38100
H1108       H  0.37898814  0.05437667  0.17403666     0.32600
H1109       H  0.35867391  0.10593225  0.18711148     0.31400
H1110       H  0.32603248  0.17306645  0.17479921     0.33100
H1111       H  0.34081652  0.24608349  0.13082156     0.32100
H1112       H  0.42188308  0.12076405  0.17364803     0.36100
H1113       H  0.42897755  0.20399769  0.17018599     0.28800
H1114       H  0.34601131  0.04790317  0.08902958     0.33100
H1115       H  0.33440061  0.21778388  0.08762704     0.35900
H1116       H  0.33863856  0.11697863  0.18599942     0.28500
H1117       H  0.42387437  0.23973094  0.16263257     0.41400
H1118       H  0.43750685  0.10606281  0.10871736     0.31400
H1119       H  0.42419020  0.05650197  0.12704900     0.39100
H1120       H  0.32957930  0.21299525  0.12953693     0.30900
H1121       H  0.39953403  0.17931384  0.07117121     0.31000
H1122       H  0.33785586  0.08284083  0.08335073     0.31200
Zr1123     Zr  0.36462726  0.59539756  0.10997353     2.17500
O1124       O  0.34303407  0.56187634  0.09326926    -0.51100
O1125       O  0.37348016  0.53707334  0.11588928    -0.74300
O1126       O  0.37320145  0.58991483  0.07830373    -0.81100
O1127       O  0.32971258  0.61729563  0.14547281    -0.82800
O1128       O  0.39935818  0.61749745  0.07432445    -0.78500
O1129       O  0.33283869  0.59456262  0.11783992    -0.90100
O1130       O  0.39525951  0.53601417  0.13683879    -0.76100
O1131       O  0.39616300  0.59575969  0.11338968    -0.85600
O1132       O  0.37051322  0.59130435  0.14131871    -0.85200
O1133       O  0.37398540  0.64843951  0.09735125    -0.72000
O1134       O  0.35170518  0.64412816  0.12379236    -0.84100
Zr1135     Zr  0.39950488  0.69395067  0.14565953     2.26400
Zr1136     Zr  0.40573351  0.64846481  0.10135066     2.06300
Zr1137     Zr  0.35801542  0.64052661  0.15492544     2.10000
Zr1138     Zr  0.40213142  0.59297184  0.14455679     1.78800
O1139       O  0.33283540  0.67393911  0.16533360    -0.92900
O1140       O  0.42991780  0.56967009  0.13297389    -0.40800
O1141       O  0.38965399  0.64166440  0.15839902    -0.77400
O1142       O  0.41291745  0.64461669  0.13253799    -0.96100
O1143       O  0.39303623  0.69790990  0.11457876    -0.89400
O1144       O  0.36780123  0.69327977  0.14302952    -0.92200
C1145       C  0.38458875  0.52151645  0.12603682     1.01500
C1146       C  0.32334462  0.60345749  0.13136852     1.14500
C1147       C  0.38647414  0.59930513  0.06854639     1.05200
O1148       O  0.43104188  0.61408037  0.09223662    -0.94400
O1149       O  0.43268669  0.67993807  0.10702853    -0.90100
O1150       O  0.42967500  0.70509263  0.13403087    -0.83300
C1151       C  0.43879558  0.69742927  0.12002132     1.11900
O1152       O  0.33710632  0.69314894  0.09040421    -0.96300
Zr1153     Zr  0.36140134  0.69663110  0.11195158     1.88900
O1154       O  0.39071521  0.75248046  0.14017736    -0.73000
O1155       O  0.40869836  0.68822527  0.07680411    -0.52300
O1156       O  0.36959532  0.72528419  0.08436918    -0.96900
O1157       O  0.33260751  0.71743452  0.12246480    -0.54200
O1158       O  0.36709454  0.75354702  0.12129959    -0.73500
C1159       C  0.37852075  0.76806658  0.13133882     0.98800
O1160       O  0.41942975  0.71836201  0.16792020    -0.62300
O1161       O  0.35404631  0.59747598  0.17778735    -0.57100
O1162       O  0.39181795  0.69789215  0.17743119    -0.93800
O1163       O  0.36649741  0.66802070  0.18264399    -0.92200
O1164       O  0.39563926  0.56792767  0.17352557    -0.92600
O1165       O  0.42664807  0.59511070  0.16583655    -0.91400
C1166       C  0.37939360  0.68698254  0.18782119     1.17700
H1167       H  0.36538160  0.57110536  0.14633428     0.33600
H1168       H  0.42564134  0.64383466  0.13446948     0.44500
H1169       H  0.36244192  0.71160998  0.14958532     0.38000
H1170       H  0.37079222  0.65043763  0.08492593     0.34500
H1171       H  0.43180903  0.54861709  0.13979979     0.26300
H1172       H  0.41830853  0.67876368  0.06925222     0.32200
H1173       H  0.36728921  0.74945637  0.08657813     0.38100
H1174       H  0.38597086  0.55150382  0.17127081     0.32600
H1175       H  0.34800830  0.60917551  0.18776069     0.31400
H1176       H  0.32877805  0.66252065  0.17635710     0.33100
H1177       H  0.33539966  0.73359749  0.13210759     0.32100
H1178       H  0.42666980  0.61863946  0.17017318     0.36100
H1179       H  0.42980976  0.70298071  0.16863492     0.28800
H1180       H  0.34964865  0.54175934  0.08913911     0.33100
H1181       H  0.33418402  0.71673774  0.08726514     0.35900
H1182       H  0.34485826  0.58209481  0.17294917     0.28500
H1183       H  0.42411370  0.73937505  0.16256870     0.41400
H1184       H  0.43865130  0.61240732  0.10299400     0.31400
H1185       H  0.42697861  0.56193939  0.12077128     0.39100
H1186       H  0.32713425  0.69802330  0.12869390     0.30900
H1187       H  0.39769464  0.68534157  0.06965682     0.31000
H1188       H  0.34037933  0.57477160  0.08227209     0.31200
Zr1189     Zr  0.36291481  0.34524044  0.39639000     2.17500
O1190       O  0.34120207  0.37619291  0.41431500    -0.51100
O1191       O  0.36956222  0.40401369  0.38873968    -0.74300
O1192       O  0.37199641  0.35205699  0.42767727    -0.81100
O1193       O  0.32732116  0.31933922  0.36220183    -0.82800
O1194       O  0.39940299  0.32885545  0.43152873    -0.78500
O1195       O  0.33084603  0.34450233  0.38913236    -0.90100
O1196       O  0.39208313  0.40612859  0.36858655    -0.76100
O1197       O  0.39446123  0.34786353  0.39219616    -0.85600
O1198       O  0.36788251  0.34841440  0.36493837    -0.85200
O1199       O  0.37436558  0.29390565  0.40939502    -0.72000
O1200       O  0.35053229  0.29478306  0.38396529    -0.84100
Zr1201     Zr  0.39934206  0.24907699  0.36114480     2.26400
Zr1202     Zr  0.40599498  0.29682240  0.40477562     2.06300
Zr1203     Zr  0.35592845  0.29773724  0.35265896     2.10000
Zr1204     Zr  0.39938062  0.34945060  0.36074276     1.78800
O1205       O  0.33202871  0.26063031  0.34280733    -0.92900
O1206       O  0.42783966  0.37446082  0.36916141    -0.40800
O1207       O  0.38746883  0.29943246  0.34790082    -0.77400
O1208       O  0.41184887  0.29979793  0.37339908    -0.96100
O1209       O  0.39405945  0.24605542  0.39244120    -0.89400
O1210       O  0.36778566  0.24673871  0.36473789    -0.92200
C1211       C  0.38054437  0.42014303  0.37866334     1.01500
C1212       C  0.32112849  0.33464185  0.37592998     1.14500
C1213       C  0.38573611  0.34501280  0.43728990     1.05200
O1214       O  0.43198450  0.33129636  0.41171382    -0.94400
O1215       O  0.43289673  0.26491567  0.39869712    -0.90100
O1216       O  0.42959110  0.23845104  0.37206952    -0.83300
C1217       C  0.43884709  0.24672364  0.38585231     1.11900
O1218       O  0.34072889  0.24760098  0.42000023    -0.96300
Zr1219     Zr  0.36253337  0.24403354  0.39594775     1.88900
O1220       O  0.39254719  0.18981502  0.36714851    -0.73000
O1221       O  0.41040245  0.25890815  0.42995208    -0.52300
O1222       O  0.37227032  0.21274655  0.42218752    -0.96900
O1223       O  0.33359785  0.22278693  0.38621106    -0.54200
O1224       O  0.36870643  0.18770642  0.38582807    -0.73500
C1225       C  0.38050417  0.17374323  0.37595772     0.98800
O1226       O  0.42338588  0.23282613  0.34091022    -0.62300
O1227       O  0.34827859  0.34077711  0.33078301    -0.57100
O1228       O  0.38963677  0.24055792  0.33026446    -0.93800
O1229       O  0.36435214  0.27049135  0.32501550    -0.92200
O1230       O  0.39077815  0.37460755  0.33235394    -0.92600
O1231       O  0.42175748  0.34467663  0.33733208    -0.91400
C1232       C  0.37700112  0.25088170  0.31998951     1.17700
H1233       H  0.36211796  0.36789756  0.35980898     0.33600
H1234       H  0.42451533  0.30106595  0.37114365     0.44500
H1235       H  0.36281576  0.22768265  0.35848412     0.38000
H1236       H  0.37154856  0.29199320  0.42190712     0.34500
H1237       H  0.42837256  0.39596384  0.36249116     0.26300
H1238       H  0.41810574  0.27153568  0.43833205     0.32200
H1239       H  0.36693538  0.19008198  0.42090953     0.38100
H1240       H  0.38235184  0.39290873  0.33540491     0.32600
H1241       H  0.35724957  0.33825564  0.32118351     0.31400
H1242       H  0.32790031  0.27035123  0.33136019     0.33100
H1243       H  0.33575088  0.21262291  0.37435265     0.32100
H1244       H  0.42504943  0.32053811  0.33726044     0.36100
H1245       H  0.41951847  0.21160394  0.33517867     0.28800
H1246       H  0.34778519  0.39537428  0.41957849     0.33100
H1247       H  0.33631452  0.22434053  0.42173496     0.35900
H1248       H  0.33695734  0.33292530  0.32540272     0.28500
H1249       H  0.42341186  0.24986372  0.33125207     0.41400
H1250       H  0.43970305  0.32994430  0.40101184     0.31400
H1251       H  0.42626022  0.38126737  0.38176514     0.39100
H1252       H  0.32642988  0.24316938  0.38364975     0.30900
H1253       H  0.39863884  0.25787434  0.43594303     0.31000
H1254       H  0.33823939  0.36136732  0.42452876     0.31200
Zr1255     Zr  0.36150534  0.84590080  0.39343471     2.17500
O1256       O  0.33944063  0.88100891  0.40853069    -0.51100
O1257       O  0.36820935  0.90403896  0.38505367    -0.74300
O1258       O  0.36885491  0.85451461  0.42521990    -0.81100
O1259       O  0.32712754  0.81418171  0.35897049    -0.82800
O1260       O  0.39675612  0.83408320  0.43021051    -0.78500
O1261       O  0.32977371  0.84179019  0.38535729    -0.90100
O1262       O  0.39057761  0.90574157  0.36475522    -0.76100
O1263       O  0.39302897  0.84981690  0.38973780    -0.85600
O1264       O  0.36719053  0.84589873  0.36198035    -0.85200
O1265       O  0.37324566  0.79682596  0.40833805    -0.72000
O1266       O  0.35013655  0.79367843  0.38211980    -0.84100
Zr1267     Zr  0.39986558  0.74814971  0.36182080     2.26400
Zr1268     Zr  0.40488491  0.80098205  0.40417660     2.06300
Zr1269     Zr  0.35630743  0.79332574  0.35086815     2.10000
Zr1270     Zr  0.39874787  0.84847536  0.35843645     1.78800
O1271       O  0.33366512  0.75344432  0.34104165    -0.92900
O1272       O  0.42622445  0.87727920  0.36671654    -0.40800
O1273       O  0.38790096  0.79651478  0.34666235    -0.77400
O1274       O  0.41147483  0.80068536  0.37285755    -0.96100
O1275       O  0.39392833  0.74840405  0.39304917    -0.89400
O1276       O  0.36824905  0.74435403  0.36505416    -0.92200
C1277       C  0.37902005  0.91998768  0.37476674     1.01500
C1278       C  0.32046876  0.83000084  0.37231701     1.14500
C1279       C  0.38248323  0.84916569  0.43534431     1.05200
O1280       O  0.42922874  0.83953479  0.41090010    -0.94400
O1281       O  0.43274160  0.77118546  0.39991130    -0.90100
O1282       O  0.42977070  0.74024699  0.37462545    -0.83300
C1283       C  0.43882957  0.75071727  0.38814878     1.11900
O1284       O  0.33962729  0.74969283  0.41936443    -0.96300
Zr1285     Zr  0.36241734  0.74520192  0.39626259     1.88900
O1286       O  0.39206006  0.68968789  0.36822066    -0.73000
O1287       O  0.40942251  0.76426429  0.42978778    -0.52300
O1288       O  0.37278055  0.72048801  0.42418273    -0.96900
O1289       O  0.33372263  0.72069735  0.38816924    -0.54200
O1290       O  0.36984042  0.68813932  0.38876167    -0.73500
C1291       C  0.38093547  0.67389412  0.37824247     0.98800
O1292       O  0.42443075  0.72278745  0.34523025    -0.62300
O1293       O  0.34878783  0.83276694  0.32711382    -0.57100
O1294       O  0.39275138  0.73996591  0.32998538    -0.93800
O1295       O  0.36564727  0.76327779  0.32436395    -0.92200
O1296       O  0.39055109  0.87071506  0.32922664    -0.92600
O1297       O  0.42289231  0.83979877  0.33715453    -0.91400
C1298       C  0.37949855  0.74659049  0.31957323     1.17700
H1299       H  0.36129238  0.86453113  0.35615342     0.33600
H1300       H  0.42417330  0.80224107  0.37083763     0.44500
H1301       H  0.36348496  0.72446693  0.35939024     0.38000
H1302       H  0.37011111  0.79552375  0.42079105     0.34500
H1303       H  0.42742691  0.89582486  0.35796181     0.26300
H1304       H  0.41844242  0.77599922  0.43715447     0.32200
H1305       H  0.36866794  0.69681930  0.42389427     0.38100
H1306       H  0.38415058  0.89204554  0.33159326     0.32600
H1307       H  0.35856063  0.83047533  0.31830866     0.31400
H1308       H  0.32859505  0.76345085  0.33004955     0.33100
H1309       H  0.33650496  0.70354851  0.37901373     0.32100
H1310       H  0.42234218  0.81551725  0.33422837     0.36100
H1311       H  0.41944142  0.70232179  0.33959428     0.28800
H1312       H  0.34621327  0.89995972  0.41378763     0.33100
H1313       H  0.33717231  0.72631381  0.42324639     0.35900
H1314       H  0.33825758  0.82275872  0.32116537     0.28500
H1315       H  0.42697881  0.73838204  0.33523692     0.41400
H1316       H  0.43583424  0.84186090  0.39952421     0.31400
H1317       H  0.42342564  0.88869389  0.37811507     0.39100
H1318       H  0.32746376  0.73872486  0.38152032     0.30900
H1319       H  0.39823121  0.76596214  0.43675153     0.31000
H1320       H  0.33527965  0.86764947  0.41888911     0.31200
Zr1321     Zr  0.64721907  0.33386959  0.11175450     2.17500
O1322       O  0.66820601  0.36901720  0.09516388    -0.51100
O1323       O  0.64062152  0.39201169  0.12018807    -0.74300
O1324       O  0.63817063  0.34299960  0.08057664    -0.81100
O1325       O  0.68323634  0.30653973  0.14519241    -0.82800
O1326       O  0.61112096  0.31883957  0.07633784    -0.78500
O1327       O  0.67908316  0.33086387  0.11810748    -0.90100
O1328       O  0.61796054  0.39278382  0.14014045    -0.76100
O1329       O  0.61589770  0.33626033  0.11651024    -0.85600
O1330       O  0.64300983  0.33441588  0.14340637    -0.85200
O1331       O  0.63594345  0.28365956  0.09768903    -0.72000
O1332       O  0.65981843  0.28252398  0.12303747    -0.84100
Zr1333     Zr  0.61138227  0.23494705  0.14549523     2.26400
Zr1334     Zr  0.60442996  0.28628806  0.10295615     2.06300
Zr1335     Zr  0.65496972  0.28247521  0.15449358     2.10000
Zr1336     Zr  0.61160518  0.33555050  0.14804170     1.78800
O1337       O  0.67865110  0.24259601  0.16145301    -0.92900
O1338       O  0.58274771  0.36055891  0.14098937    -0.40800
O1339       O  0.62344890  0.28425600  0.15963500    -0.77400
O1340       O  0.59888111  0.28688443  0.13450879    -0.96100
O1341       O  0.61638382  0.23445427  0.11410096    -0.89400
O1342       O  0.64291853  0.23247019  0.14137271    -0.92200
C1343       C  0.62933640  0.40750536  0.13014247     1.01500
C1344       C  0.68908389  0.32120310  0.13106627     1.14500
C1345       C  0.62454727  0.33601473  0.07080246     1.05200
O1346       O  0.57954569  0.32455677  0.09798088    -0.94400
O1347       O  0.57741522  0.25490323  0.10868070    -0.90100
O1348       O  0.58046495  0.22823453  0.13531477    -0.83300
C1349       C  0.57122147  0.23736814  0.12164833     1.11900
O1350       O  0.67210368  0.23641388  0.08837963    -0.96300
Zr1351     Zr  0.64783404  0.23282359  0.10999089     1.88900
O1352       O  0.61876235  0.17622545  0.13847213    -0.73000
O1353       O  0.59817759  0.25132265  0.07701145    -0.52300
O1354       O  0.63858993  0.21046501  0.08117487    -0.96900
O1355       O  0.67554927  0.20579075  0.11938228    -0.54200
O1356       O  0.63928706  0.17586295  0.11631770    -0.73500
C1357       C  0.62892180  0.16085344  0.12727749     0.98800
O1358       O  0.58888122  0.20664603  0.16368411    -0.62300
O1359       O  0.66392570  0.31961244  0.17874627    -0.57100
O1360       O  0.61954422  0.23020163  0.17716055    -0.93800
O1361       O  0.64670795  0.25383320  0.18189222    -0.92200
O1362       O  0.62183047  0.35961550  0.17613652    -0.92600
O1363       O  0.59014490  0.33046692  0.17228839    -0.91400
C1364       C  0.63294306  0.23741493  0.18721415     1.17700
H1365       H  0.64891926  0.35341280  0.14884836     0.33600
H1366       H  0.58627965  0.28857995  0.13699912     0.44500
H1367       H  0.64785339  0.21273788  0.14706294     0.38000
H1368       H  0.63868707  0.28264264  0.08512895     0.34500
H1369       H  0.58210463  0.38112757  0.14840925     0.26300
H1370       H  0.58923776  0.26418748  0.07006241     0.32200
H1371       H  0.62674463  0.20022869  0.08337157     0.38100
H1372       H  0.62915562  0.37937786  0.17280756     0.32600
H1373       H  0.65342921  0.32060712  0.18675341     0.31400
H1374       H  0.68481807  0.25231123  0.17192987     0.33100
H1375       H  0.67260703  0.19321045  0.13040020     0.32100
H1376       H  0.58776448  0.30601079  0.17318669     0.36100
H1377       H  0.59512930  0.18801538  0.16986409     0.28800
H1378       H  0.66109881  0.38778943  0.09013819     0.33100
H1379       H  0.67348682  0.21339093  0.08351842     0.35900
H1380       H  0.67293504  0.30661019  0.18553288     0.28500
H1381       H  0.58562725  0.22279458  0.17320385     0.41400
H1382       H  0.57209818  0.32257311  0.10884341     0.31400
H1383       H  0.58406841  0.36909851  0.12864657     0.39100
H1384       H  0.68325384  0.22449922  0.12347281     0.30900
H1385       H  0.60917480  0.25228988  0.06970176     0.31000
H1386       H  0.67190582  0.35547962  0.08471137     0.31200
Zr1387     Zr  0.64998388  0.83159251  0.11266465     2.17500
O1388       O  0.67284834  0.86184001  0.09586873    -0.51100
O1389       O  0.64425235  0.89044185  0.11968900    -0.74300
O1390       O  0.64227596  0.84094124  0.08118919    -0.81100
O1391       O  0.68413104  0.80067923  0.14745651    -0.82800
O1392       O  0.61430601  0.82090307  0.07655597    -0.78500
O1393       O  0.68127835  0.82967926  0.12150203    -0.90100
O1394       O  0.62386608  0.89442636  0.14195870    -0.76100
O1395       O  0.61863202  0.83779128  0.11646103    -0.85600
O1396       O  0.64490824  0.83285075  0.14416167    -0.85200
O1397       O  0.63753698  0.78266209  0.09838928    -0.72000
O1398       O  0.66101293  0.77933096  0.12438794    -0.84100
Zr1399     Zr  0.61083204  0.73722329  0.14562883     2.26400
Zr1400     Zr  0.60598557  0.78878637  0.10287814     2.06300
Zr1401     Zr  0.65505506  0.77993477  0.15574642     2.10000
Zr1402     Zr  0.61348518  0.83810440  0.14781579     1.78800
O1403       O  0.67510411  0.73478759  0.16490636    -0.92900
O1404       O  0.58669464  0.86837257  0.13868571    -0.40800
O1405       O  0.62371224  0.78583415  0.15952402    -0.77400
O1406       O  0.59972191  0.79018292  0.13427340    -0.96100
O1407       O  0.61642282  0.73598118  0.11435487    -0.89400
O1408       O  0.64233463  0.73099713  0.14231400    -0.92200
C1409       C  0.63475131  0.90736298  0.13073268     1.01500
C1410       C  0.69061608  0.81750223  0.13436105     1.14500
C1411       C  0.62849816  0.83607601  0.07128828     1.05200
O1412       O  0.58220855  0.82914824  0.09711377    -0.94400
O1413       O  0.57795303  0.76002861  0.10773955    -0.90100
O1414       O  0.58040519  0.73281926  0.13424189    -0.83300
C1415       C  0.57146926  0.74235129  0.12050841     1.11900
O1416       O  0.67022989  0.73217795  0.08729003    -0.96300
Zr1417     Zr  0.64787924  0.73099862  0.11095274     1.88900
O1418       O  0.61704946  0.67792214  0.13878928    -0.73000
O1419       O  0.59879799  0.75402319  0.07713443    -0.52300
O1420       O  0.63655960  0.70634073  0.08341812    -0.96900
O1421       O  0.67613652  0.70504440  0.11950478    -0.54200
O1422       O  0.63967121  0.67468316  0.11877221    -0.73500
C1423       C  0.62806205  0.66126797  0.12901408     0.98800
O1424       O  0.59068085  0.70809333  0.16603702    -0.62300
O1425       O  0.66702766  0.81477430  0.17965847    -0.57100
O1426       O  0.61554581  0.73607916  0.17805513    -0.93800
O1427       O  0.64242366  0.75993544  0.18365561    -0.92200
O1428       O  0.62250902  0.86138670  0.17648013    -0.92600
O1429       O  0.58977805  0.83238747  0.16987849    -0.91400
C1430       C  0.62797953  0.74548337  0.18880935     1.17700
H1431       H  0.65125886  0.85119412  0.14974399     0.33600
H1432       H  0.58711237  0.79289579  0.13646239     0.44500
H1433       H  0.64665243  0.71086825  0.14811954     0.38000
H1434       H  0.64049194  0.78118812  0.08589562     0.34500
H1435       H  0.58490859  0.88575142  0.14797421     0.26300
H1436       H  0.59154943  0.76874117  0.06930478     0.32200
H1437       H  0.63941569  0.68205558  0.08418806     0.38100
H1438       H  0.61413501  0.88022006  0.17867356     0.32600
H1439       H  0.65640996  0.82460707  0.18554323     0.31400
H1440       H  0.67609270  0.73702276  0.17802578     0.33100
H1441       H  0.67324830  0.69043545  0.12981514     0.32100
H1442       H  0.58873168  0.80782772  0.17188963     0.36100
H1443       H  0.58067262  0.72385307  0.16823373     0.28800
H1444       H  0.66682244  0.88154610  0.09044868     0.33100
H1445       H  0.67281743  0.70829289  0.08453623     0.35900
H1446       H  0.67189246  0.79866181  0.18849911     0.28500
H1447       H  0.58541320  0.68932747  0.15913593     0.41400
H1448       H  0.57431137  0.82772932  0.10768078     0.31400
H1449       H  0.59030153  0.88121154  0.12794568     0.39100
H1450       H  0.68326194  0.72361106  0.12467562     0.30900
H1451       H  0.61025416  0.75127625  0.07071983     0.31000
H1452       H  0.67606610  0.84712231  0.08570937     0.31200
Zr1453     Zr  0.64382044  0.08928385  0.39823657     2.17500
O1454       O  0.66490235  0.05858598  0.41704784    -0.51100
O1455       O  0.63614529  0.03025379  0.39248096    -0.74300
O1456       O  0.63463895  0.08609691  0.42975114    -0.81100
O1457       O  0.67839657  0.10389470  0.36124857    -0.82800
O1458       O  0.60849080  0.11412651  0.43282443    -0.78500
O1459       O  0.67537241  0.08627719  0.38993470    -0.90100
O1460       O  0.61407809  0.02903439  0.37186960    -0.76100
O1461       O  0.61217886  0.09152634  0.39524278    -0.85600
O1462       O  0.63771182  0.08302302  0.36711118    -0.85200
O1463       O  0.63527574  0.14362425  0.40972204    -0.72000
O1464       O  0.65773535  0.13588863  0.38323390    -0.84100
Zr1465     Zr  0.61056108  0.18646823  0.36048109     2.26400
Zr1466     Zr  0.60356714  0.14608586  0.40582547     2.06300
Zr1467     Zr  0.65087262  0.13010398  0.35228130     2.10000
Zr1468     Zr  0.60617902  0.08583409  0.36419375     1.78800
O1469       O  0.67663402  0.15908992  0.33975670    -0.92900
O1470       O  0.57911061  0.06080004  0.37640047    -0.40800
O1471       O  0.61928984  0.13253335  0.34889103    -0.77400
O1472       O  0.59639943  0.13915792  0.37488948    -0.96100
O1473       O  0.61728377  0.19306219  0.39138065    -0.89400
O1474       O  0.64226345  0.18436417  0.36312496    -0.92200
C1475       C  0.62519114  0.01447009  0.38227340     1.01500
C1476       C  0.68468212  0.09169455  0.37578214     1.14500
C1477       C  0.62116828  0.09594339  0.43906658     1.05200
O1478       O  0.57587391  0.12149289  0.41661502    -0.94400
O1479       O  0.57711331  0.17874471  0.39886222    -0.90100
O1480       O  0.58022671  0.19942313  0.37082160    -0.83300
C1481       C  0.57109171  0.19443635  0.38513046     1.11900
O1482       O  0.67393100  0.18222084  0.41458946    -0.96300
Zr1483     Zr  0.64890126  0.18955949  0.39413194     1.88900
O1484       O  0.61899424  0.24511448  0.36614212    -0.73000
O1485       O  0.60442430  0.18862556  0.42920642    -0.52300
O1486       O  0.64497685  0.21772314  0.42272907    -0.96900
O1487       O  0.67629248  0.21227821  0.38121193    -0.54200
O1488       O  0.64098114  0.24655167  0.38692212    -0.73500
C1489       C  0.62997221  0.26091490  0.37633221     0.98800
O1490       O  0.59181324  0.21132980  0.33734673    -0.62300
O1491       O  0.65294099  0.08385368  0.33103916    -0.57100
O1492       O  0.61842936  0.18753265  0.32870401    -0.93800
O1493       O  0.64344297  0.15654552  0.32415416    -0.92200
O1494       O  0.61149467  0.05817040  0.33571550    -0.92600
O1495       O  0.58081899  0.09103511  0.34406578    -0.91400
C1496       C  0.63081070  0.17564738  0.31858589     1.17700
H1497       H  0.64262472  0.06237805  0.36241889     0.33600
H1498       H  0.58366798  0.13879376  0.37300954     0.44500
H1499       H  0.64777277  0.20200996  0.35616768     0.38000
H1500       H  0.63851151  0.14603981  0.42211962     0.34500
H1501       H  0.57661338  0.04126757  0.36859461     0.26300
H1502       H  0.59502212  0.18165495  0.43772492     0.32200
H1503       H  0.65089174  0.23985165  0.42133595     0.38100
H1504       H  0.60374371  0.03799158  0.33594326     0.32600
H1505       H  0.64351144  0.08843422  0.32211009     0.31400
H1506       H  0.68038420  0.14504569  0.32951353     0.33100
H1507       H  0.67240829  0.22854335  0.37198138     0.32100
H1508       H  0.58448863  0.10840402  0.33531941     0.36100
H1509       H  0.58123965  0.19649380  0.33636903     0.28800
H1510       H  0.65790252  0.04075554  0.42308179     0.33100
H1511       H  0.67959710  0.20463834  0.41567202     0.35900
H1512       H  0.66426984  0.08779231  0.32457025     0.28500
H1513       H  0.58727823  0.23275663  0.34233098     0.41400
H1514       H  0.57576762  0.09850754  0.41153767     0.31400
H1515       H  0.58282832  0.05063695  0.38788097     0.39100
H1516       H  0.68150158  0.19331772  0.37441077     0.30900
H1517       H  0.61573464  0.18446177  0.43566418     0.31000
H1518       H  0.66838109  0.07438022  0.42665089     0.31200
Zr1519     Zr  0.64613585  0.59070812  0.39583192     2.17500
O1520       O  0.67028688  0.56266898  0.41188717    -0.51100
O1521       O  0.64022539  0.53118129  0.39047451    -0.74300
O1522       O  0.63990426  0.58451612  0.42775649    -0.81100
O1523       O  0.67845822  0.61577027  0.35810485    -0.82800
O1524       O  0.61217362  0.60526960  0.43331198    -0.78500
O1525       O  0.67723773  0.59272739  0.38579684    -0.90100
O1526       O  0.61769352  0.52719786  0.37040724    -0.76100
O1527       O  0.61441194  0.58656173  0.39447701    -0.85600
O1528       O  0.63872305  0.58553524  0.36488122    -0.85200
O1529       O  0.63508291  0.64166038  0.40944525    -0.72000
O1530       O  0.65693001  0.64047932  0.38139329    -0.84100
Zr1531     Zr  0.60654355  0.68387502  0.36243722     2.26400
Zr1532     Zr  0.60321549  0.63770510  0.40718067     2.06300
Zr1533     Zr  0.64890444  0.63592993  0.35068036     2.10000
Zr1534     Zr  0.60701163  0.58285036  0.36365765     1.78800
O1535       O  0.67186809  0.67099356  0.33713692    -0.92900
O1536       O  0.58159850  0.55401536  0.37706191    -0.40800
O1537       O  0.61712684  0.63278687  0.34881322    -0.77400
O1538       O  0.59530161  0.63330794  0.37628656    -0.96100
O1539       O  0.61406859  0.68781253  0.39320996    -0.89400
O1540       O  0.63820300  0.68705468  0.36359181    -0.92200
C1541       C  0.62958783  0.51421196  0.38053746     1.01500
C1542       C  0.68579196  0.60180789  0.37168800     1.14500
C1543       C  0.62662659  0.59039650  0.43816640     1.05200
O1544       O  0.57778068  0.60380287  0.41649948    -0.94400
O1545       O  0.57558216  0.66896687  0.40266254    -0.90100
O1546       O  0.57778932  0.69599003  0.37603023    -0.83300
C1547       C  0.56922435  0.68788370  0.39025316     1.11900
O1548       O  0.66921429  0.68397781  0.41661589    -0.96300
Zr1549     Zr  0.64573440  0.69068128  0.39439612     1.88900
O1550       O  0.61352535  0.74343163  0.36795841    -0.73000
O1551       O  0.60112942  0.67707356  0.43199016    -0.52300
O1552       O  0.63852521  0.72420689  0.42064232    -0.96900
O1553       O  0.67378505  0.71295997  0.38292289    -0.54200
O1554       O  0.63814880  0.74677376  0.38550124    -0.73500
C1555       C  0.62565098  0.76017373  0.37631540     0.98800
O1556       O  0.58016772  0.69734271  0.34469961    -0.62300
O1557       O  0.65338901  0.59272457  0.32801137    -0.57100
O1558       O  0.61353172  0.69472928  0.33090297    -0.93800
O1559       O  0.63834710  0.66472571  0.32415083    -0.92200
O1560       O  0.61111783  0.55656600  0.33460147    -0.92600
O1561       O  0.58092340  0.58477883  0.34432609    -0.91400
C1562       C  0.62554656  0.68459138  0.31984732     1.17700
H1563       H  0.64435328  0.56607939  0.35958468     0.33600
H1564       H  0.58250268  0.63198256  0.37496953     0.44500
H1565       H  0.64256424  0.70615941  0.35690920     0.38000
H1566       H  0.63878919  0.64414553  0.42169323     0.34500
H1567       H  0.58090972  0.53217399  0.37074887     0.26300
H1568       H  0.59074841  0.66918815  0.43901863     0.32200
H1569       H  0.62561456  0.72916860  0.41959269     0.38100
H1570       H  0.62335697  0.54719954  0.33486214     0.32600
H1571       H  0.65013877  0.60358543  0.31657357     0.31400
H1572       H  0.67591107  0.65814270  0.32656711     0.33100
H1573       H  0.67092082  0.72174185  0.37089625     0.32100
H1574       H  0.58265827  0.60523475  0.33696553     0.36100
H1575       H  0.58238800  0.71999842  0.33964845     0.28800
H1576       H  0.66480236  0.54291817  0.41780085     0.33100
H1577       H  0.67353640  0.70704002  0.41910390     0.35900
H1578       H  0.66648972  0.58976051  0.32728512     0.28500
H1579       H  0.58038590  0.68184834  0.33436367     0.41400
H1580       H  0.57072101  0.60038776  0.40548372     0.31400
H1581       H  0.58552812  0.54803513  0.38927202     0.39100
H1582       H  0.68124951  0.69284807  0.38063507     0.30900
H1583       H  0.61159985  0.67210397  0.43960622     0.31000
H1584       H  0.67362923  0.57802896  0.42173347     0.31200
Zr1585     Zr  0.86001617  0.09091618  0.39303982     2.17500
O1586       O  0.83718869  0.11971143  0.41059015    -0.51100
O1587       O  0.86572206  0.15037475  0.38638464    -0.74300
O1588       O  0.86842419  0.09774881  0.42439833    -0.81100
O1589       O  0.82554567  0.06013503  0.35865679    -0.82800
O1590       O  0.89641147  0.07729289  0.42833491    -0.78500
O1591       O  0.82826532  0.08784267  0.38499440    -0.90100
O1592       O  0.88707206  0.15474314  0.36499520    -0.76100
O1593       O  0.89156223  0.09529510  0.38980661    -0.85600
O1594       O  0.86571324  0.09543649  0.36177166    -0.85200
O1595       O  0.87184243  0.03998516  0.40613551    -0.72000
O1596       O  0.84893307  0.04016525  0.37983602    -0.84100
Zr1597     Zr  0.89876046  0.99803714  0.35799359     2.26400
Zr1598     Zr  0.90350022  0.04431489  0.40215701     2.06300
Zr1599     Zr  0.85510522  0.04439768  0.34868760     2.10000
Zr1600     Zr  0.89727029  0.09873737  0.35858894     1.78800
O1601       O  0.83369871  0.00582804  0.33528337    -0.92900
O1602       O  0.92416697  0.12659509  0.36931313    -0.40800
O1603       O  0.88673813  0.04835441  0.34485444    -0.77400
O1604       O  0.91008467  0.04907149  0.37101931    -0.96100
O1605       O  0.89270328  0.99336965  0.38910748    -0.89400
O1606       O  0.86715989  0.99355657  0.36085034    -0.92200
C1607       C  0.87564259  0.16746457  0.37570633     1.01500
C1608       C  0.81888287  0.07539297  0.37219172     1.14500
C1609       C  0.88233174  0.09223344  0.43400450     1.05200
O1610       O  0.92916617  0.07710351  0.41192870    -0.94400
O1611       O  0.93135059  0.01508189  0.39644991    -0.90100
O1612       O  0.92900046  0.98963641  0.36946681    -0.83300
C1613       C  0.93783050  0.99766702  0.38355481     1.11900
O1614       O  0.83754784  0.99084676  0.41439378    -0.96300
Zr1615     Zr  0.86111645  0.98990709  0.39197176     1.88900
O1616       O  0.89172390  0.93853331  0.36269534    -0.73000
O1617       O  0.90544218  0.00312632  0.42617009    -0.52300
O1618       O  0.86884301  0.95991124  0.41929704    -0.96900
O1619       O  0.83342015  0.96662308  0.38015848    -0.54200
O1620       O  0.86915828  0.93415163  0.38278464    -0.73500
C1621       C  0.88054130  0.92143603  0.37204539     0.98800
O1622       O  0.92313454  0.97635182  0.33972647    -0.62300
O1623       O  0.84591633  0.08839366  0.32793954    -0.57100
O1624       O  0.89170664  0.99379859  0.32612491    -0.93800
O1625       O  0.86570851  0.02116095  0.32079491    -0.92200
O1626       O  0.88901737  0.12256067  0.32980676    -0.92600
O1627       O  0.92237815  0.09787105  0.33793982    -0.91400
C1628       C  0.87918138  0.00378583  0.31563800     1.17700
H1629       H  0.85970390  0.11464224  0.35663020     0.33600
H1630       H  0.92278251  0.05119707  0.36920588     0.44500
H1631       H  0.86257842  0.97441653  0.35437264     0.38000
H1632       H  0.86879152  0.03774432  0.41857939     0.34500
H1633       H  0.92322828  0.15005770  0.36495407     0.26300
H1634       H  0.91681779  0.00829317  0.43229421     0.32200
H1635       H  0.88055386  0.94935222  0.41682031     0.38100
H1636       H  0.88660621  0.10283763  0.32212022     0.32600
H1637       H  0.85507510  0.08823103  0.31843150     0.31400
H1638       H  0.82836088  0.01851686  0.32523617     0.33100
H1639       H  0.83706997  0.94870837  0.37175007     0.32100
H1640       H  0.92854386  0.07626428  0.34026952     0.36100
H1641       H  0.91828468  0.95672455  0.33320137     0.28800
H1642       H  0.84331501  0.13855495  0.41668098     0.33100
H1643       H  0.83322531  0.96734817  0.41526991     0.35900
H1644       H  0.83505505  0.07947179  0.32210652     0.28500
H1645       H  0.92545465  0.99367773  0.33050253     0.41400
H1646       H  0.93365797  0.06519496  0.42263976     0.31400
H1647       H  0.92256471  0.12830981  0.38239017     0.39100
H1648       H  0.82851135  0.98457907  0.37241622     0.30900
H1649       H  0.89607138  0.00975710  0.43479088     0.31000
H1650       H  0.83386794  0.10384560  0.42023655     0.31200
Zr1651     Zr  0.86127257  0.59340159  0.38855462     2.17500
O1652       O  0.83844238  0.62354244  0.40538931    -0.51100
O1653       O  0.86897909  0.65220028  0.38240505    -0.74300
O1654       O  0.86935972  0.59973273  0.42007117    -0.81100
O1655       O  0.82636113  0.56771336  0.35350990    -0.82800
O1656       O  0.89664583  0.57618084  0.42440698    -0.78500
O1657       O  0.82955026  0.59301446  0.38045503    -0.90100
O1658       O  0.89141976  0.65341878  0.36219253    -0.76100
O1659       O  0.89286297  0.59496206  0.38508097    -0.85600
O1660       O  0.86695592  0.59670759  0.35720062    -0.85200
O1661       O  0.87199302  0.54201859  0.40202806    -0.72000
O1662       O  0.84893124  0.54338168  0.37571717    -0.84100
Zr1663     Zr  0.89746336  0.49558902  0.35423541     2.26400
Zr1664     Zr  0.90370056  0.54370958  0.39789330     2.06300
Zr1665     Zr  0.85511426  0.54618136  0.34454131     2.10000
Zr1666     Zr  0.89854002  0.59667108  0.35382900     1.78800
O1667       O  0.83101457  0.51117163  0.33315200    -0.92900
O1668       O  0.92654382  0.62190611  0.36356700    -0.40800
O1669       O  0.88676113  0.54663954  0.34064020    -0.77400
O1670       O  0.91021756  0.54631338  0.36659008    -0.96100
O1671       O  0.89153725  0.49328775  0.38539527    -0.89400
O1672       O  0.86577803  0.49455189  0.35722589    -0.92200
C1673       C  0.88032123  0.66795061  0.37258826     1.01500
C1674       C  0.82001783  0.58272315  0.36725336     1.14500
C1675       C  0.88289346  0.59243978  0.42991447     1.05200
O1676       O  0.92933166  0.57942974  0.40420658    -0.94400
O1677       O  0.93014993  0.50973373  0.39318096    -0.90100
O1678       O  0.92799073  0.48813559  0.36512616    -0.83300
C1679       C  0.93655865  0.49408591  0.37966484     1.11900
O1680       O  0.83887175  0.49613615  0.41315218    -0.96300
Zr1681     Zr  0.85999924  0.49268288  0.38848298     1.88900
O1682       O  0.88954934  0.43656475  0.36074383    -0.73000
O1683       O  0.90784296  0.50629909  0.42332189    -0.52300
O1684       O  0.87028012  0.46199660  0.41474335    -0.96900
O1685       O  0.83029026  0.47280361  0.38045161    -0.54200
O1686       O  0.86555376  0.43614884  0.37910663    -0.73500
C1687       C  0.87741018  0.42115178  0.36980577     0.98800
O1688       O  0.92053466  0.46891557  0.33608632    -0.62300
O1689       O  0.84936256  0.58964476  0.32225494    -0.57100
O1690       O  0.88976246  0.49100232  0.32250486    -0.93800
O1691       O  0.86379816  0.51850425  0.31718894    -0.92200
O1692       O  0.89080804  0.62157954  0.32512938    -0.92600
O1693       O  0.92205797  0.59303906  0.33148108    -0.91400
C1694       C  0.87705153  0.50048070  0.31210915     1.17700
H1695       H  0.86149056  0.61645055  0.35201676     0.33600
H1696       H  0.92291669  0.54774818  0.36459447     0.44500
H1697       H  0.86062597  0.47561032  0.35100920     0.38000
H1698       H  0.86890520  0.54010237  0.41447701     0.34500
H1699       H  0.92806097  0.64206235  0.35593243     0.26300
H1700       H  0.91707373  0.51739438  0.43070966     0.32200
H1701       H  0.88016707  0.44749522  0.41052842     0.38100
H1702       H  0.88254020  0.64026349  0.32795342     0.32600
H1703       H  0.85532775  0.58172714  0.31124864     0.31400
H1704       H  0.82531830  0.52491224  0.32370558     0.33100
H1705       H  0.83162242  0.46345463  0.36828891     0.32100
H1706       H  0.91976846  0.57152461  0.32523084     0.36100
H1707       H  0.91477357  0.44929220  0.33034171     0.28800
H1708       H  0.84463647  0.64274957  0.41106841     0.33100
H1709       H  0.83509081  0.47266456  0.41551018     0.35900
H1710       H  0.83645246  0.58780120  0.31961954     0.28500
H1711       H  0.92320063  0.48484101  0.32626543     0.41400
H1712       H  0.93698078  0.57767530  0.39347439     0.31400
H1713       H  0.92396157  0.63111177  0.37556445     0.39100
H1714       H  0.82312899  0.49351823  0.37876316     0.30900
H1715       H  0.89671218  0.50834830  0.43035809     0.31000
H1716       H  0.83511633  0.60845220  0.41538108     0.31200
Zr1717     Zr  0.86402143  0.33843696  0.10637572     2.17500
O1718       O  0.84118760  0.31209471  0.08779414    -0.51100
O1719       O  0.86843342  0.27951256  0.11472976    -0.74300
O1720       O  0.87350352  0.32791428  0.07576550    -0.81100
O1721       O  0.82878269  0.37001302  0.13888079    -0.82800
O1722       O  0.90138379  0.34873990  0.07139171    -0.78500
O1723       O  0.83215931  0.33918699  0.11370996    -0.90100
O1724       O  0.88868274  0.27665616  0.13712331    -0.76100
O1725       O  0.89532393  0.33228417  0.11135367    -0.85600
O1726       O  0.86813243  0.33717478  0.13792293    -0.85200
O1727       O  0.87723410  0.38733986  0.09244629    -0.72000
O1728       O  0.85277120  0.39114862  0.11711908    -0.84100
Zr1729     Zr  0.90202650  0.43326211  0.14043243     2.26400
Zr1730     Zr  0.90856687  0.38111255  0.09799613     2.06300
Zr1731     Zr  0.85748463  0.38993434  0.14854867     2.10000
Zr1732     Zr  0.89938088  0.33262851  0.14293155     1.78800
O1733       O  0.83456770  0.42993054  0.15753520    -0.92900
O1734       O  0.92624323  0.30146757  0.13498471    -0.40800
O1735       O  0.88871952  0.38499230  0.15451014    -0.77400
O1736       O  0.91351816  0.38020658  0.12964656    -0.96100
O1737       O  0.89781315  0.43405682  0.10892300    -0.89400
O1738       O  0.87076487  0.43887206  0.13564433    -0.92200
C1739       C  0.87767673  0.26306529  0.12625196     1.01500
C1740       C  0.82250454  0.35233325  0.12607964     1.14500
C1741       C  0.88728693  0.33343366  0.06602851     1.05200
O1742       O  0.93342292  0.34336463  0.09178962    -0.94400
O1743       O  0.93626506  0.41030797  0.10411760    -0.90100
O1744       O  0.93291849  0.43853655  0.13022996    -0.83300
C1745       C  0.94227130  0.42889935  0.11674892     1.11900
O1746       O  0.84680354  0.43589771  0.07842674    -0.96300
Zr1747     Zr  0.86654408  0.43954511  0.10420890     1.88900
O1748       O  0.89591321  0.49236151  0.13336455    -0.73000
O1749       O  0.91473273  0.41683106  0.07231201    -0.52300
O1750       O  0.87833445  0.47070848  0.07874564    -0.96900
O1751       O  0.83702826  0.46177237  0.11116999    -0.54200
O1752       O  0.87293089  0.49621709  0.11371490    -0.73500
C1753       C  0.88463691  0.50926024  0.12403296     0.98800
O1754       O  0.92521059  0.45883388  0.15884735    -0.62300
O1755       O  0.84876193  0.34950845  0.17145921    -0.57100
O1756       O  0.89261151  0.44179539  0.17161909    -0.93800
O1757       O  0.86543878  0.41801975  0.17572054    -0.92200
O1758       O  0.89058464  0.30876494  0.17155508    -0.92600
O1759       O  0.92249228  0.33810436  0.16560292    -0.91400
C1760       C  0.87889310  0.43470664  0.18131809     1.17700
H1761       H  0.86158158  0.31889039  0.14333432     0.33600
H1762       H  0.92605215  0.37770844  0.13230797     0.44500
H1763       H  0.86601424  0.45870741  0.14137355     0.38000
H1764       H  0.87477493  0.38848152  0.07983791     0.34500
H1765       H  0.92712072  0.28340525  0.14405957     0.26300
H1766       H  0.92348720  0.40396686  0.06514294     0.32200
H1767       H  0.89136379  0.47215714  0.08078587     0.38100
H1768       H  0.88599651  0.32811433  0.17848702     0.32600
H1769       H  0.85453004  0.35734014  0.18258026     0.31400
H1770       H  0.82792658  0.41838684  0.16718551     0.33100
H1771       H  0.83834371  0.47253782  0.12300002     0.32100
H1772       H  0.92277619  0.36244429  0.16841822     0.36100
H1773       H  0.91983763  0.47955165  0.16385437     0.28800
H1774       H  0.84636694  0.29052701  0.08367079     0.33100
H1775       H  0.84334514  0.45939697  0.07568212     0.35900
H1776       H  0.83587139  0.35356401  0.17340449     0.28500
H1777       H  0.92684935  0.44357427  0.16917183     0.41400
H1778       H  0.92810418  0.32055868  0.09164787     0.31400
H1779       H  0.92314035  0.28952774  0.12382339     0.39100
H1780       H  0.82953083  0.44171122  0.11346903     0.30900
H1781       H  0.90363039  0.41636577  0.06515555     0.31000
H1782       H  0.84009460  0.32618197  0.07693659     0.31200
Zr1783     Zr  0.86506956  0.83690988  0.10945062     2.17500
O1784       O  0.84360012  0.80449060  0.09199733    -0.51100
O1785       O  0.87347739  0.77884553  0.11634733    -0.74300
O1786       O  0.87314617  0.83053883  0.07793320    -0.81100
O1787       O  0.83071797  0.85443161  0.14594302    -0.82800
O1788       O  0.89956771  0.85691072  0.07305112    -0.78500
O1789       O  0.83361207  0.83377867  0.11788321    -0.90100
O1790       O  0.89701692  0.77836209  0.13523358    -0.76100
O1791       O  0.89673706  0.83770899  0.11225479    -0.85600
O1792       O  0.87112214  0.83410931  0.14074228    -0.85200
O1793       O  0.87413252  0.88935290  0.09596902    -0.72000
O1794       O  0.85133251  0.88555754  0.12252277    -0.84100
Zr1795     Zr  0.89890781  0.93612626  0.14362510     2.26400
Zr1796     Zr  0.90595668  0.89027917  0.09948197     2.06300
Zr1797     Zr  0.85790030  0.88325867  0.15368273     2.10000
Zr1798     Zr  0.90273662  0.83581561  0.14346595     1.78800
O1799       O  0.83280654  0.91965121  0.16108546    -0.92900
O1800       O  0.93148363  0.81526284  0.13282752    -0.40800
O1801       O  0.88964173  0.88418663  0.15731523    -0.77400
O1802       O  0.91289481  0.88726240  0.13070968    -0.96100
O1803       O  0.89264118  0.93928154  0.11250113    -0.89400
O1804       O  0.86724263  0.93566526  0.14105648    -0.92200
C1805       C  0.88547348  0.76343239  0.12550146     1.01500
C1806       C  0.82440356  0.84035406  0.13193866     1.14500
C1807       C  0.88632645  0.83887622  0.06788164     1.05200
O1808       O  0.93256638  0.86033818  0.08962659    -0.94400
O1809       O  0.93229025  0.92420272  0.10536743    -0.90100
O1810       O  0.92830171  0.95016505  0.13203853    -0.83300
C1811       C  0.93767629  0.94308617  0.11818192     1.11900
O1812       O  0.83669672  0.93248540  0.08852043    -0.96300
Zr1813     Zr  0.86103314  0.93760555  0.10992376     1.88900
O1814       O  0.89018491  0.99432627  0.13795911    -0.73000
O1815       O  0.90777603  0.92982432  0.07469664    -0.52300
O1816       O  0.86811366  0.96428595  0.08152153    -0.96900
O1817       O  0.83256176  0.96013866  0.12026717    -0.54200
O1818       O  0.86753086  0.99504294  0.11790818    -0.73500
C1819       C  0.87861430  0.00971682  0.12829258     0.98800
O1820       O  0.92266738  0.96039789  0.16174170    -0.62300
O1821       O  0.85000496  0.84399230  0.17743596    -0.57100
O1822       O  0.89072850  0.94262804  0.17511387    -0.93800
O1823       O  0.86617016  0.91125851  0.18125687    -0.92200
O1824       O  0.89626321  0.80501990  0.17080037    -0.92600
O1825       O  0.92583327  0.84310022  0.16600650    -0.91400
C1826       C  0.87864959  0.93162437  0.18583995     1.17700
H1827       H  0.86617904  0.81400650  0.14605897     0.33600
H1828       H  0.92563194  0.88745709  0.13262170     0.44500
H1829       H  0.86190890  0.95431232  0.14737475     0.38000
H1830       H  0.87081272  0.89073336  0.08355693     0.34500
H1831       H  0.93441262  0.79609957  0.14076059     0.26300
H1832       H  0.91886974  0.92352508  0.06833776     0.32200
H1833       H  0.87881059  0.97816598  0.08393831     0.38100
H1834       H  0.89237399  0.82248664  0.17936416     0.32600
H1835       H  0.86151796  0.83678737  0.18263380     0.31400
H1836       H  0.82984653  0.91411666  0.17362187     0.10700
H1837       H  0.83561206  0.97757550  0.12918116     0.32100
H1838       H  0.92788740  0.86770194  0.16646137     0.36100
H1839       H  0.91740835  0.98030905  0.16769445     0.28800
H1840       H  0.85042137  0.78587951  0.08645400     0.33100
H1841       H  0.83333893  0.95584769  0.08533289     0.35900
H1842       H  0.84440876  0.85800496  0.18681326     0.28500
H1843       H  0.92497684  0.94394082  0.17139551     0.41400
H1844       H  0.93936866  0.85578112  0.10068822     0.31400
H1845       H  0.92886418  0.80471429  0.12115653     0.39100
H1846       H  0.82717130  0.94169823  0.12732957     0.30900
H1847       H  0.89804684  0.92319615  0.06648696     0.31000
H1848       H  0.83997244  0.81920004  0.08195053     0.31200
Zr1849     Zr  0.14641601  0.09149594  0.11013121     2.17500
O1850       O  0.16959175  0.11878921  0.09236154    -0.51100
O1851       O  0.13952542  0.15082680  0.11547157    -0.74300
O1852       O  0.13822252  0.09721775  0.07864424    -0.81100
O1853       O  0.18054651  0.06888962  0.14647212    -0.82800
O1854       O  0.11070894  0.07465689  0.07442130    -0.78500
O1855       O  0.17757146  0.09439718  0.11954696    -0.90100
O1856       O  0.11799425  0.15401962  0.13663749    -0.76100
O1857       O  0.11485592  0.09466875  0.11339156    -0.85600
O1858       O  0.14075210  0.09560528  0.14140603    -0.85200
O1859       O  0.13538021  0.03998165  0.09725861    -0.72000
O1860       O  0.15855085  0.04137639  0.12330981    -0.84100
Zr1861     Zr  0.10884240  0.99704831  0.14539760     2.26400
Zr1862     Zr  0.10362739  0.04318293  0.10119787     2.06300
Zr1863     Zr  0.15207568  0.04504626  0.15448562     2.10000
Zr1864     Zr  0.10923989  0.09785876  0.14461823     1.78800
O1865       O  0.17522018  0.00662781  0.16484903    -0.92900
O1866       O  0.08217722  0.12603971  0.13451673    -0.40800
O1867       O  0.12046045  0.04790453  0.15837842    -0.77400
O1868       O  0.09700888  0.04774515  0.13233430    -0.96100
O1869       O  0.11500663  0.99253469  0.11429291    -0.89400
O1870       O  0.14053333  0.99370335  0.14251361    -0.92200
C1871       C  0.12902525  0.16748062  0.12575027     1.01500
C1872       C  0.18686766  0.08510482  0.13310845     1.14500
C1873       C  0.12462744  0.09027402  0.06885358     1.05200
O1874       O  0.07812685  0.07780440  0.09298534    -0.94400
O1875       O  0.07586506  0.01435523  0.10737736    -0.90100
O1876       O  0.07838323  0.98847826  0.13426038    -0.83300
C1877       C  0.06937278  0.99726468  0.12037294     1.11900
O1878       O  0.16951493  0.98809536  0.08828316    -0.96300
Zr1879     Zr  0.14663116  0.99048103  0.11139495     1.88900
O1880       O  0.11629779  0.93772254  0.14068211    -0.73000
O1881       O  0.09935709  0.00385346  0.07667433    -0.52300
O1882       O  0.13697035  0.96344700  0.08384929    -0.96900
O1883       O  0.17522536  0.96843565  0.12175180    -0.54200
O1884       O  0.13912196  0.93468630  0.12090847    -0.73500
C1885       C  0.12775803  0.92116586  0.13140768     0.98800
O1886       O  0.08448071  0.97531694  0.16370113    -0.62300
O1887       O  0.15996107  0.08662895  0.17701076    -0.57100
O1888       O  0.11629260  0.99285090  0.17719911    -0.93800
O1889       O  0.14216008  0.02076785  0.18237070    -0.92200
O1890       O  0.11677153  0.12478154  0.17278666    -0.92600
O1891       O  0.08498916  0.09251192  0.16607004    -0.91400
C1892       C  0.12880921  0.00311568  0.18760749     1.17700
H1893       H  0.14649820  0.11510705  0.14651179     0.33600
H1894       H  0.08433587  0.04973320  0.13435254     0.44500
H1895       H  0.14532340  0.97473579  0.14901433     0.38000
H1896       H  0.13850790  0.03764668  0.08484127     0.34500
H1897       H  0.08050584  0.14496159  0.14294185     0.26300
H1898       H  0.09016345  0.01455332  0.06905891     0.32200
H1899       H  0.13648477  0.93907134  0.08654078     0.38100
H1900       H  0.11061516  0.14682704  0.17237891     0.32600
H1901       H  0.14938728  0.08804092  0.18489332     0.31400
H1902       H  0.18081013  0.01824248  0.17510577     0.33100
H1903       H  0.17241366  0.95526291  0.13261230     0.32100
H1904       H  0.08894977  0.07459137  0.17436646     0.36100
H1905       H  0.08929839  0.95527587  0.16991192     0.28800
H1906       H  0.16369482  0.13779081  0.08615578     0.33100
H1907       H  0.17230013  0.96389091  0.08675716     0.35900
H1908       H  0.16922506  0.07557958  0.18439403     0.28500
H1909       H  0.08245719  0.99227825  0.17316383     0.41400
H1910       H  0.07286703  0.08487019  0.10450621     0.31400
H1911       H  0.08552953  0.13698257  0.12312327     0.39100
H1912       H  0.18179905  0.98833562  0.12621162     0.30900
H1913       H  0.11047746  0.00532655  0.06958315     0.31000
H1914       H  0.17270183  0.10257599  0.08282807     0.31200
Zr1915     Zr  0.14766932  0.59485022  0.11230514     2.17500
O1916       O  0.16857041  0.63114512  0.09629853    -0.51100
O1917       O  0.14040829  0.65261445  0.12056220    -0.74300
O1918       O  0.13985142  0.60232666  0.08077103    -0.81100
O1919       O  0.18294848  0.56738288  0.14645487    -0.82800
O1920       O  0.11201815  0.58145875  0.07648585    -0.78500
O1921       O  0.17948491  0.59342637  0.11971218    -0.90100
O1922       O  0.12017929  0.65399447  0.14302017    -0.76100
O1923       O  0.11617571  0.59757537  0.11629363    -0.85600
O1924       O  0.14261914  0.59553381  0.14379172    -0.85200
O1925       O  0.13640013  0.54472579  0.09803308    -0.72000
O1926       O  0.16017472  0.54352928  0.12369428    -0.84100
Zr1927     Zr  0.11123075  0.49627655  0.14478297     2.26400
Zr1928     Zr  0.10479837  0.54768744  0.10248773     2.06300
Zr1929     Zr  0.15444973  0.54374735  0.15499762     2.10000
Zr1930     Zr  0.11107655  0.59674723  0.14771949     1.78800
O1931       O  0.17870322  0.50642085  0.16378141    -0.92900
O1932       O  0.08445633  0.62645905  0.13759894    -0.40800
O1933       O  0.12285557  0.54541065  0.15930679    -0.77400
O1934       O  0.09875460  0.54797242  0.13379614    -0.96100
O1935       O  0.11677899  0.49603387  0.11358002    -0.89400
O1936       O  0.14288806  0.49379050  0.14150494    -0.92200
C1937       C  0.13067167  0.66829618  0.13192303     1.01500
C1938       C  0.18912651  0.58317137  0.13285181     1.14500
C1939       C  0.12619117  0.59626856  0.07089434     1.05200
O1940       O  0.07827395  0.58197349  0.09777061    -0.94400
O1941       O  0.07830604  0.51406504  0.10722941    -0.90100
O1942       O  0.08173721  0.48373291  0.13265796    -0.83300
C1943       C  0.07259038  0.49331858  0.11903781     1.11900
O1944       O  0.16920700  0.50128663  0.08559261    -0.96300
Zr1945     Zr  0.14831065  0.49394686  0.11024558     1.88900
O1946       O  0.11836213  0.43763025  0.13801702    -0.73000
O1947       O  0.09990894  0.51302921  0.07614729    -0.52300
O1948       O  0.13902821  0.46513716  0.08311675    -0.96900
O1949       O  0.17782252  0.47249461  0.11791071    -0.54200
O1950       O  0.14155615  0.43656540  0.11855386    -0.73500
C1951       C  0.12985799  0.42194659  0.12835143     0.98800
O1952       O  0.08601642  0.48062423  0.16366396    -0.62300
O1953       O  0.16124129  0.58292828  0.17905081    -0.57100
O1954       O  0.11978928  0.48572335  0.17565705    -0.93800
O1955       O  0.14558249  0.51347160  0.18163355    -0.92200
O1956       O  0.11859861  0.61562107  0.17771576    -0.92600
O1957       O  0.08692253  0.59117117  0.16930948    -0.91400
C1958       C  0.13246824  0.49456520  0.18619946     1.17700
H1959       H  0.14843760  0.61443414  0.14942922     0.33600
H1960       H  0.08603291  0.54851085  0.13583268     0.44500
H1961       H  0.14784851  0.47414386  0.14727064     0.38000
H1962       H  0.13932140  0.54334088  0.08553455     0.34500
H1963       H  0.08240435  0.64416249  0.14665704     0.26300
H1964       H  0.09172858  0.52635353  0.06853928     0.32200
H1965       H  0.12650397  0.45835255  0.08530224     0.38100
H1966       H  0.11874029  0.64050322  0.17709572     0.32600
H1967       H  0.15106657  0.58095003  0.18741346     0.31400
H1968       H  0.18238968  0.51438641  0.17573712     0.33100
H1969       H  0.17598360  0.45894463  0.12884596     0.32100
H1970       H  0.08043414  0.57053863  0.16576328     0.36100
H1971       H  0.08951495  0.45962184  0.16986653     0.28800
H1972       H  0.16129550  0.64932828  0.09091503     0.33100
H1973       H  0.17412040  0.47861895  0.08314642     0.35900
H1974       H  0.17139941  0.57256312  0.18547442     0.28500
H1975       H  0.08548798  0.49803722  0.17309532     0.41400
H1976       H  0.08256772  0.60549580  0.09836262     0.31400
H1977       H  0.08830364  0.63898519  0.12683724     0.39100
H1978       H  0.18458376  0.49246335  0.12199274     0.30900
H1979       H  0.11144178  0.51329418  0.06969870     0.31000
H1980       H  0.17294692  0.61773804  0.08606365     0.31200
Zr1981     Zr  0.14461502  0.34543926  0.39542764     2.17500
O1982       O  0.16686086  0.31834325  0.41444382    -0.51100
O1983       O  0.13899769  0.28601806  0.38894900    -0.74300
O1984       O  0.13480197  0.33851833  0.42646992    -0.81100
O1985       O  0.18018694  0.37117609  0.36124809    -0.82800
O1986       O  0.10767099  0.36298144  0.42980443    -0.78500
O1987       O  0.17665227  0.34652810  0.38838290    -0.90100
O1988       O  0.11807609  0.28154910  0.36723804    -0.76100
O1989       O  0.11312341  0.34166237  0.39142430    -0.85600
O1990       O  0.13985004  0.34055502  0.36399523    -0.85200
O1991       O  0.13249481  0.39677390  0.40764569    -0.72000
O1992       O  0.15650615  0.39552853  0.38212863    -0.84100
Zr1993     Zr  0.10763411  0.43826389  0.35834861     2.26400
Zr1994     Zr  0.10093198  0.39327032  0.40268828     2.06300
Zr1995     Zr  0.15134068  0.39099767  0.35084509     2.10000
Zr1996     Zr  0.10831398  0.33750346  0.36015018     1.78800
O1997       O  0.17378741  0.43068346  0.34029348    -0.92900
O1998       O  0.08168306  0.31094364  0.37238194    -0.40800
O1999       O  0.11985020  0.38717362  0.34631660    -0.77400
O2000       O  0.09521120  0.38795715  0.37132205    -0.96100
O2001       O  0.11257766  0.44356313  0.38960126    -0.89400
O2002       O  0.13913269  0.44225061  0.36226715    -0.92200
C2003       C  0.12914339  0.26878315  0.37831083     1.01500
C2004       C  0.18641590  0.35679188  0.37530637     1.14500
C2005       C  0.12100978  0.34629217  0.43583923     1.05200
O2006       O  0.07550546  0.35850089  0.41104886    -0.94400
O2007       O  0.07355979  0.42361140  0.39643375    -0.90100
O2008       O  0.07720519  0.44745048  0.36908020    -0.83300
C2009       C  0.06783817  0.44034834  0.38295798     1.11900
O2010       O  0.16770489  0.44335327  0.41572590    -0.96300
Zr2011     Zr  0.14401493  0.44609280  0.39357872     1.88900
O2012       O  0.11359189  0.49787843  0.36387450    -0.73000
O2013       O  0.09656599  0.43358918  0.42674994    -0.52300
O2014       O  0.13613907  0.47264007  0.42176938    -0.96900
O2015       O  0.17167189  0.47201341  0.38338732    -0.54200
O2016       O  0.13466974  0.50179802  0.38543309    -0.73500
C2017       C  0.12373396  0.51494422  0.37432534     0.98800
O2018       O  0.08714470  0.45693721  0.33501315    -0.62300
O2019       O  0.16043477  0.34856594  0.32925097    -0.57100
O2020       O  0.11605159  0.44372258  0.32699815    -0.93800
O2021       O  0.14155051  0.41409360  0.32246145    -0.92200
O2022       O  0.11486886  0.30914194  0.33214037    -0.92600
O2023       O  0.08364747  0.33819522  0.33901563    -0.91400
C2024       C  0.12856312  0.43244841  0.31688945     1.17700
H2025       H  0.14588114  0.32115799  0.35910426     0.33600
H2026       H  0.08258369  0.38606783  0.36900002     0.44500
H2027       H  0.14393643  0.46143685  0.35596129     0.38000
H2028       H  0.13521156  0.39920985  0.42016043     0.34500
H2029       H  0.08034224  0.28983789  0.36550401     0.26300
H2030       H  0.08654324  0.42430686  0.43381888     0.32200
H2031       H  0.12409268  0.48217853  0.41978451     0.38100
H2032       H  0.11741049  0.32753241  0.32359046     0.32600
H2033       H  0.15016316  0.34645480  0.32102807     0.31400
H2034       H  0.18031803  0.41849244  0.33080758     0.33100
H2035       H  0.16803042  0.48886481  0.37435564     0.32100
H2036       H  0.08198951  0.36227299  0.33602970     0.36100
H2037       H  0.07748457  0.43995140  0.33466291     0.28800
H2038       H  0.16090657  0.29839971  0.41968613     0.33100
H2039       H  0.17249546  0.42020892  0.41464274     0.35900
H2040       H  0.16983542  0.35960506  0.32204141     0.28500
H2041       H  0.08146426  0.47779524  0.33948453     0.41400
H2042       H  0.06901671  0.35449779  0.39974706     0.31400
H2043       H  0.08513819  0.30337612  0.38448573     0.39100
H2044       H  0.17772283  0.45417300  0.37642984     0.30900
H2045       H  0.10713784  0.43090453  0.43454177     0.31000
H2046       H  0.16884315  0.33386515  0.42458374     0.31200
Zr2047     Zr  0.14487998  0.84113005  0.39273900     2.17500
O2048       O  0.16762724  0.81134002  0.40991217    -0.51100
O2049       O  0.13779031  0.78329563  0.38403581    -0.74300
O2050       O  0.13623661  0.83101265  0.42395609    -0.81100
O2051       O  0.17974767  0.86954530  0.35789977    -0.82800
O2052       O  0.10930840  0.85530308  0.42929743    -0.78500
O2053       O  0.17656420  0.84093792  0.38393766    -0.90100
O2054       O  0.11278960  0.78354178  0.36696944    -0.76100
O2055       O  0.11319101  0.83960947  0.38944455    -0.85600
O2056       O  0.13899606  0.84066578  0.36142947    -0.85200
O2057       O  0.13402341  0.89121192  0.40736827    -0.72000
O2058       O  0.15723223  0.89235946  0.38123479    -0.84100
Zr2059     Zr  0.10857185  0.94160907  0.36094206     2.26400
Zr2060     Zr  0.10225116  0.88975162  0.40338049     2.06300
Zr2061     Zr  0.15088960  0.89224991  0.35005123     2.10000
Zr2062     Zr  0.10734897  0.84069981  0.35820753     1.78800
O2063       O  0.17476346  0.92890596  0.33966959    -0.92900
O2064       O  0.07830229  0.81694953  0.36577918    -0.40800
O2065       O  0.11927873  0.89178202  0.34637087    -0.77400
O2066       O  0.09548036  0.89002581  0.37200708    -0.96100
O2067       O  0.11443966  0.94141732  0.39217282    -0.89400
O2068       O  0.14021636  0.94256488  0.36397201    -0.92200
C2069       C  0.12513084  0.76841895  0.37556104     1.01500
C2070       C  0.18611140  0.85264276  0.37101880     1.14500
C2071       C  0.12292655  0.83793849  0.43418922     1.05200
O2072       O  0.07650157  0.85483769  0.41056800    -0.94400
O2073       O  0.07532228  0.92261447  0.39877297    -0.90100
O2074       O  0.07838384  0.95076852  0.37257871    -0.83300
C2075       C  0.06932414  0.94196486  0.38641078     1.11900
O2076       O  0.16880798  0.93484441  0.41814688    -0.96300
Zr2077     Zr  0.14605414  0.94196795  0.39520026     1.88900
O2078       O  0.11654331  0.99958522  0.36875046    -0.73000
O2079       O  0.09898853  0.92510953  0.42968709    -0.52300
O2080       O  0.13696512  0.96860373  0.42304456    -0.96900
O2081       O  0.17503889  0.96490872  0.38678322    -0.54200
O2082       O  0.13993438  0.99977563  0.38787537    -0.73500
C2083       C  0.12832499  0.01484909  0.37824294     0.98800
O2084       O  0.08934487  0.97035124  0.33952248    -0.62300
O2085       O  0.15578483  0.85136977  0.32629182    -0.57100
O2086       O  0.11581731  0.94920394  0.32926161    -0.93800
O2087       O  0.14200024  0.92264069  0.32357402    -0.92200
O2088       O  0.11644357  0.81460453  0.33021954    -0.92600
O2089       O  0.08571621  0.84643484  0.33415333    -0.91400
C2090       C  0.12871659  0.94086291  0.31879712     1.17700
H2091       H  0.14450868  0.82147922  0.35575743     0.33600
H2092       H  0.08277122  0.88924087  0.36993851     0.44500
H2093       H  0.14532643  0.96207523  0.35821455     0.38000
H2094       H  0.13712806  0.89171185  0.41984552     0.34500
H2095       H  0.07696455  0.79717115  0.35786122     0.26300
H2096       H  0.08944606  0.91418321  0.43676281     0.32200
H2097       H  0.12456608  0.97629527  0.42098619     0.38100
H2098       H  0.12461550  0.79608873  0.33360439     0.32600
H2099       H  0.14901333  0.85999658  0.31590979     0.31400
H2100       H  0.17981944  0.91723120  0.32915463     0.33100
H2101       H  0.17258925  0.98024092  0.37665735     0.32100
H2102       H  0.08329882  0.87090427  0.33347277     0.36100
H2103       H  0.07886300  0.95550497  0.33787157     0.28800
H2104       H  0.16164651  0.79131879  0.41503457     0.33100
H2105       H  0.17191140  0.95789762  0.42208396     0.35900
H2106       H  0.16846883  0.85418614  0.32290803     0.28500
H2107       H  0.08472524  0.99049052  0.34577090     0.41400
H2108       H  0.06926888  0.85448121  0.39951821     0.31400
H2109       H  0.07989594  0.80716606  0.37782999     0.39100
H2110       H  0.18151565  0.94574185  0.38136958     0.30900
H2111       H  0.11000781  0.92134603  0.43670134     0.31000
H2112       H  0.17036326  0.82597900  0.42024139     0.31200
C2113       C  0.10818162  0.67882488  0.37295108    -0.28000
C2114       C  0.12419528  0.66057865  0.37299387     0.05600
C2115       C  0.14052383  0.67806589  0.37376710     0.25200
C2116       C  0.14073758  0.71308580  0.37516110    -0.12500
C2117       C  0.12472845  0.73133265  0.37524585    -0.26400
C2118       C  0.10839178  0.71389237  0.37397982     0.36100
C2119       C  0.12377997  0.62336455  0.37314381     0.05600
F2120       F  0.15629110  0.66131763  0.37284679    -0.20200
H2121       H  0.15345134  0.72601859  0.37569311     0.15500
F2122       F  0.09259389  0.73064675  0.37413728    -0.23900
H2123       H  0.09547486  0.66585501  0.37248177     0.17300
C2124       C  0.13374662  0.60556046  0.38586332     0.25300
C2125       C  0.13360034  0.57058488  0.38600409    -0.12400
C2126       C  0.12318454  0.55229032  0.37375194    -0.26500
C2127       C  0.11269770  0.57017823  0.36132227     0.36200
C2128       C  0.11308206  0.60543904  0.36102679    -0.28100
F2129       F  0.14324313  0.62200808  0.39857763    -0.20200
H2130       H  0.14161500  0.55787994  0.39596935     0.15500
F2131       F  0.10215852  0.55382127  0.34943290    -0.23900
H2132       H  0.10512351  0.61877305  0.35124106     0.17300
C2133       C  0.11512816  0.10667515  0.37210937    -0.28000
C2134       C  0.13017995  0.12341147  0.37886861     0.05600
C2135       C  0.14457272  0.10437875  0.38534264     0.25200
C2136       C  0.14385319  0.06922520  0.38501581    -0.12500
C2137       C  0.12880161  0.05227150  0.37818078    -0.26400
C2138       C  0.11443551  0.07152586  0.37161852     0.36100
C2139       C  0.13084733  0.16066537  0.37868705     0.05600
F2140       F  0.15952520  0.11975274  0.39151729    -0.20200
H2141       H  0.15523907  0.05526992  0.38997818     0.15500
F2142       F  0.09962378  0.05658002  0.36487390    -0.23900
H2143       H  0.10382740  0.12094737  0.36719621     0.17300
C2144       C  0.12726789  0.17839859  0.36287132     0.25300
C2145       C  0.12693144  0.21349728  0.36287399    -0.12400
C2146       C  0.13048074  0.23167625  0.37855836    -0.26500
C2147       C  0.13455379  0.21397899  0.39430223     0.36200
C2148       C  0.13465657  0.17872791  0.39434430    -0.28100
F2149       F  0.12435059  0.16172463  0.34734177    -0.20200
H2150       H  0.12397652  0.22652337  0.35051570     0.15500
F2151       F  0.13770461  0.23066455  0.40977603    -0.23900
H2152       H  0.13732475  0.16549643  0.40670072     0.17300
C2153       C  0.11596910  0.47136782  0.27197176    -0.28000
C2154       C  0.12802633  0.45522845  0.26048697     0.05600
C2155       C  0.13978485  0.43110015  0.26750125     0.25200
C2156       C  0.13975782  0.42386537  0.28573527    -0.12500
C2157       C  0.12798707  0.44044180  0.29745669    -0.26400
C2158       C  0.11588192  0.46412828  0.29027375     0.36100
C2159       C  0.12899569  0.46472047  0.24139315     0.05600
F2160       F  0.15124861  0.41431449  0.25665875    -0.20200
H2161       H  0.14904115  0.40513463  0.29065313     0.15500
F2162       F  0.10419349  0.48088188  0.30086521    -0.23900
H2163       H  0.10688764  0.49023391  0.26681327     0.17300
C2164       C  0.11384955  0.46364646  0.23035856     0.25300
C2165       C  0.11520978  0.47233641  0.21231024    -0.12400
C2166       C  0.13156225  0.48320341  0.20504930    -0.26500
C2167       C  0.14664064  0.48475080  0.21627011     0.36200
C2168       C  0.14533394  0.47528279  0.23416691    -0.28100
F2169       F  0.09777636  0.45405046  0.23698951    -0.20200
H2170       H  0.10331516  0.47133192  0.20412172     0.15500
F2171       F  0.16268123  0.49547786  0.21005502    -0.23900
H2172       H  0.15709355  0.47675971  0.24253588     0.17300
C2173       C  0.13458530  0.75903393  0.11714399    -0.28000
C2174       C  0.13074186  0.77609490  0.13308506     0.05600
C2175       C  0.12759085  0.75760373  0.14871976     0.25200
C2176       C  0.12782208  0.72252017  0.14827903    -0.12500
C2177       C  0.13142463  0.70534159  0.13229214    -0.26400
C2178       C  0.13504188  0.72392516  0.11672464     0.36100
C2179       C  0.13007461  0.81317111  0.13330392     0.05600
F2180       F  0.12460433  0.77351557  0.16445759    -0.20200
H2181       H  0.12525953  0.70874186  0.16049356     0.15500
F2182       F  0.13837824  0.70824089  0.10098902    -0.23900
H2183       H  0.13696822  0.77296359  0.10494036     0.17300
C2184       C  0.14448132  0.83193211  0.12674996     0.25300
C2185       C  0.14357218  0.86690131  0.12637050    -0.12400
C2186       C  0.12836875  0.88400329  0.13271770    -0.26500
C2187       C  0.11410847  0.86513862  0.13976532     0.36200
C2188       C  0.11497135  0.82997034  0.13994193    -0.28100
F2189       F  0.15960129  0.81643647  0.12106074    -0.20200
H2190       H  0.15493294  0.88060821  0.12116291     0.15500
F2191       F  0.09920653  0.88045797  0.14608789    -0.23900
H2192       H  0.10372355  0.81577394  0.14502816     0.17300
C2193       C  0.11488189  0.33083630  0.13337761    -0.28000
C2194       C  0.12975120  0.31327476  0.12673238     0.05600
C2195       C  0.14461106  0.33167683  0.12074286     0.25200
C2196       C  0.14453923  0.36682812  0.12145136    -0.12500
C2197       C  0.12972391  0.38451656  0.12823324    -0.26400
C2198       C  0.11483786  0.36601144  0.13422378     0.36100
C2199       C  0.12973135  0.27588139  0.12632623     0.05600
F2200       F  0.15940522  0.31570213  0.11460643    -0.20200
H2201       H  0.15623710  0.38020870  0.11678398     0.15500
F2202       F  0.10004265  0.38175434  0.14050891    -0.23900
H2203       H  0.10314217  0.31725590  0.13776912     0.17300
C2204       C  0.12442111  0.25737126  0.14140943     0.25300
C2205       C  0.12430109  0.22231225  0.14096613    -0.12400
C2206       C  0.12962838  0.20472653  0.12559048    -0.26500
C2207       C  0.13501910  0.22313061  0.11047159     0.36200
C2208       C  0.13497536  0.25840269  0.11086064    -0.28100
F2209       F  0.11974014  0.27310477  0.15678201    -0.20200
H2210       H  0.12021959  0.20884843  0.15286324     0.15500
F2211       F  0.13980382  0.20719068  0.09519172    -0.23900
H2212       H  0.13881243  0.27210702  0.09896729     0.17300
C2213       C  0.11415410  0.96660967  0.23251851    -0.28000
C2214       C  0.12701204  0.98026584  0.24407970     0.05600
C2215       C  0.14023415  0.00148876  0.23694478     0.25200
C2216       C  0.14065268  0.00853318  0.21869981    -0.12500
C2217       C  0.12788494  0.99480822  0.20700049    -0.26400
C2218       C  0.11451001  0.97376124  0.21419067     0.36100
C2219       C  0.12719904  0.97109690  0.26334577     0.05600
F2220       F  0.15268273  0.01587744  0.24765440    -0.20200
H2221       H  0.15106106  0.02501760  0.21377900     0.15500
F2222       F  0.10189659  0.95964305  0.20359811    -0.23900
H2223       H  0.10400992  0.94975332  0.23763267     0.17300
C2224       C  0.11167615  0.97260711  0.27392113     0.25300
C2225       C  0.11226263  0.96340835  0.29199954    -0.12400
C2226       C  0.12827632  0.95225891  0.29985622    -0.26500
C2227       C  0.14379370  0.95098821  0.28918676     0.36200
C2228       C  0.14317827  0.96025697  0.27123164    -0.28100
F2229       F  0.09600246  0.98339321  0.26686408    -0.20200
H2230       H  0.10009664  0.96455985  0.29977862     0.15500
F2231       F  0.15968858  0.94082051  0.29601423    -0.23900
H2232       H  0.15526129  0.95840882  0.26335638     0.17300
C2233       C  0.98533178  0.95878530  0.10301970    -0.28000
C2234       C  0.99331693  0.96978336  0.11892748     0.05600
C2235       C  0.98254348  0.97510120  0.13400071     0.25200
C2236       C  0.96428987  0.96805765  0.13334393    -0.12500
C2237       C  0.95638190  0.95539692  0.11768731    -0.26400
C2238       C  0.96707136  0.95168286  0.10232899     0.36100
C2239       C  0.01279324  0.97630196  0.11946734     0.05600
F2240       F  0.98963619  0.98720730  0.14936611    -0.20200
H2241       H  0.95648131  0.97154365  0.14535524     0.15500
F2242       F  0.96002174  0.94071731  0.08669700    -0.23900
H2243       H  0.99336039  0.95500146  0.09116813     0.17300
C2244       C  0.02378624  0.96183041  0.13263109     0.25300
C2245       C  0.04219362  0.96807086  0.13266053    -0.12400
C2246       C  0.04999185  0.98900704  0.11965303    -0.26500
C2247       C  0.03879497  0.00370911  0.10661004     0.36200
C2248       C  0.02051106  0.99706942  0.10648728    -0.28100
F2249       F  0.01679589  0.94122921  0.14528880    -0.20200
H2250       H  0.05031702  0.95661693  0.14295880     0.15500
F2251       F  0.04528023  0.02543413  0.09421786    -0.23900
H2252       H  0.01224567  0.00880526  0.09638122     0.17300
C2253       C  0.86967801  0.60006533  0.12656674    -0.28000
C2254       C  0.88594424  0.61731845  0.12470888     0.05600
C2255       C  0.90186241  0.59858657  0.12338918     0.25200
C2256       C  0.90141000  0.56339329  0.12382082    -0.12500
C2257       C  0.88509909  0.54628976  0.12511974    -0.26400
C2258       C  0.86920163  0.56490030  0.12658999     0.36100
C2259       C  0.88617864  0.65471147  0.12437528     0.05600
F2260       F  0.91778342  0.61422402  0.12097845    -0.20200
H2261       H  0.91376220  0.54944193  0.12248443     0.15500
F2262       F  0.85323773  0.54906671  0.12833089    -0.23900
H2263       H  0.85729728  0.61386512  0.12804412     0.17300
C2264       C  0.87415391  0.67295902  0.11365944     0.25300
C2265       C  0.87396304  0.70815113  0.11411393    -0.12400
C2266       C  0.88599927  0.72600308  0.12495431    -0.26500
C2267       C  0.89844268  0.70758275  0.13523989     0.36200
C2268       C  0.89832516  0.67243373  0.13505781    -0.28100
F2269       F  0.86285672  0.65680067  0.10240592    -0.20200
H2270       H  0.86442189  0.72140173  0.10583247     0.15500
F2271       F  0.91074131  0.72328520  0.14560066    -0.23900
H2272       H  0.90765494  0.65900952  0.14350230     0.17300
C2273       C  0.89172565  0.10147097  0.13311647    -0.28000
C2274       C  0.87540156  0.11774264  0.12979359     0.05600
C2275       C  0.86016753  0.09826646  0.12627628     0.25200
C2276       C  0.86135079  0.06319138  0.12593200    -0.12500
C2277       C  0.87769346  0.04685266  0.12917292    -0.26400
C2278       C  0.89291834  0.06636819  0.13281450     0.36100
C2279       C  0.87460755  0.15497719  0.12944505     0.05600
F2280       F  0.84409882  0.11311533  0.12341850    -0.20200
H2281       H  0.84939913  0.04873667  0.12322648     0.15500
F2282       F  0.90908483  0.05168412  0.13533294    -0.23900
H2283       H  0.90369642  0.11605276  0.13552226     0.17300
C2284       C  0.88185668  0.17387638  0.14348782     0.25300
C2285       C  0.88239695  0.20888677  0.14242648    -0.12400
C2286       C  0.87574624  0.22595091  0.12735076    -0.26500
C2287       C  0.86799152  0.20701161  0.11348896     0.36200
C2288       C  0.86744166  0.17184954  0.11459491    -0.28100
F2289       F  0.88843499  0.15847823  0.15826974    -0.20200
H2290       H  0.88821878  0.22263767  0.15345166     0.15500
F2291       F  0.86162079  0.22218033  0.09855738    -0.23900
H2292       H  0.86195964  0.15769287  0.10353957     0.17300
C2293       C  0.99021648  0.44046616  0.10087039    -0.28000
C2294       C  0.99809793  0.45544624  0.11583874     0.05600
C2295       C  0.98746753  0.46283811  0.13076804     0.25200
C2296       C  0.96930856  0.45488215  0.13078667    -0.12500
C2297       C  0.96138493  0.43895574  0.11601925    -0.26400
C2298       C  0.97212553  0.43181118  0.10097987     0.36100
C2299       C  0.01743417  0.46299717  0.11592760     0.05600
F2300       F  0.99465047  0.47790336  0.14533846    -0.20200
H2301       H  0.96153696  0.46070708  0.14256624     0.15500
F2302       F  0.96533945  0.41596937  0.08644986    -0.23900
H2303       H  0.99822855  0.43459098  0.08924846     0.17300
C2304       C  0.02851228  0.45045282  0.12950930     0.25300
C2305       C  0.04653102  0.45953075  0.13018235    -0.12400
C2306       C  0.05392151  0.48100057  0.11718612    -0.26500
C2307       C  0.04288875  0.49212088  0.10304903     0.36200
C2308       C  0.02485507  0.48320839  0.10252176    -0.28100
F2309       F  0.02188020  0.42926313  0.14208622    -0.20200
H2310       H  0.05461011  0.45010243  0.14107338     0.15500
F2311       F  0.04931203  0.51222089  0.08987219    -0.23900
H2312       H  0.01654538  0.49278933  0.09183266     0.17300
C2313       C  0.02054096  0.45394161  0.36731997    -0.28000
C2314       C  0.01207404  0.46570393  0.38282620     0.05600
C2315       C  0.02223990  0.46939415  0.39853719     0.25200
C2316       C  0.04045885  0.46138336  0.39856215    -0.12500
C2317       C  0.04887513  0.45029679  0.38288821    -0.26400
C2318       C  0.03872834  0.44664632  0.36725865     0.36100
C2319       C  0.99265423  0.47335301  0.38232278     0.05600
F2320       F  0.01469366  0.48123576  0.41375360    -0.20200
H2321       H  0.04804396  0.46412891  0.41077671     0.15500
F2322       F  0.04619867  0.43442975  0.35209439    -0.23900
H2323       H  0.01297064  0.44974085  0.35522128     0.17300
C2324       C  0.98523922  0.49093558  0.36775967     0.25300
C2325       C  0.96684616  0.49599854  0.36666960    -0.12400
C2326       C  0.95555204  0.48491654  0.38036021    -0.26500
C2327       C  0.96287582  0.46825894  0.39518449     0.36200
C2328       C  0.98124874  0.46198954  0.39597685    -0.28100
F2329       F  0.99581669  0.50419400  0.35483063    -0.20200
H2330       H  0.96146393  0.50983820  0.35542361     0.15500
F2331       F  0.95224058  0.45764121  0.40872712    -0.23900
H2332       H  0.98651927  0.44795005  0.40718681     0.17300
C2333       C  0.89257397  0.46542772  0.26728991    -0.28000
C2334       C  0.87800067  0.47310990  0.25620525     0.05600
C2335       C  0.86306721  0.48926142  0.26376607     0.25200
C2336       C  0.86294922  0.49789367  0.28182952    -0.12500
C2337       C  0.87758730  0.49049451  0.29294487    -0.26400
C2338       C  0.89244703  0.47397864  0.28540449     0.36100
C2339       C  0.87832867  0.46374493  0.23694585     0.05600
F2340       F  0.84862972  0.49733151  0.25368846    -0.20200
H2341       H  0.85125485  0.51046890  0.28709187     0.15500
F2342       F  0.90691958  0.46598757  0.29540759    -0.23900
H2343       H  0.90405111  0.45223974  0.26198629     0.17300
C2344       C  0.89358269  0.46920431  0.22630548     0.25300
C2345       C  0.89363971  0.46011457  0.20825347    -0.12400
C2346       C  0.87850948  0.44553480  0.20033560    -0.26500
C2347       C  0.86317887  0.44037786  0.21101374     0.36200
C2348       C  0.86325248  0.44902420  0.22905838    -0.28100
F2349       F  0.90838948  0.48385840  0.23322922    -0.20200
H2350       H  0.90562050  0.46440782  0.20049582     0.15500
F2351       F  0.84799751  0.42691683  0.20416644    -0.23900
H2352       H  0.85146277  0.44376296  0.23693850     0.17300
C2353       C  0.86499713  0.83106053  0.37285141    -0.28000
C2354       C  0.88128627  0.81368651  0.37265346     0.05600
C2355       C  0.89729712  0.83197826  0.37099154     0.25200
C2356       C  0.89696339  0.86709535  0.36995935    -0.12500
C2357       C  0.88070969  0.88446998  0.37077958    -0.26400
C2358       C  0.86466229  0.86613844  0.37195080     0.36100
C2359       C  0.88141844  0.77647256  0.37332782     0.05600
F2360       F  0.91329224  0.81594969  0.37097095    -0.20200
H2361       H  0.90944684  0.88077446  0.36922429     0.15500
F2362       F  0.84864402  0.88213642  0.37211954    -0.23900
H2363       H  0.85250856  0.81739793  0.37360348     0.17300
C2364       C  0.87209454  0.75863808  0.38662194     0.25300
C2365       C  0.87168738  0.72337558  0.38636697    -0.12400
C2366       C  0.88075838  0.70534371  0.37299582    -0.26500
C2367       C  0.89041539  0.72353323  0.35996575     0.36200
C2368       C  0.89058889  0.75857030  0.36014128    -0.28100
F2369       F  0.86370559  0.77528789  0.40002830    -0.20200
H2370       H  0.86439957  0.71021306  0.39672090     0.15500
F2371       F  0.89949617  0.70770294  0.34673728    -0.23900
H2372       H  0.89770164  0.77183047  0.34969462     0.17300
C2373       C  0.88726678  0.32820501  0.36117109    -0.28000
C2374       C  0.87462026  0.31252732  0.37231623     0.05600
C2375       C  0.86305267  0.33267856  0.38240823     0.25200
C2376       C  0.86413880  0.36765209  0.38135514    -0.12500
C2377       C  0.87672635  0.38365409  0.37017268    -0.26400
C2378       C  0.88834355  0.36338245  0.36004623     0.36100
C2379       C  0.87358174  0.27525489  0.37334067     0.05600
F2380       F  0.85036083  0.31861690  0.39298490    -0.20200
H2381       H  0.85495482  0.38219092  0.38941503     0.15500
F2382       F  0.90072783  0.37731544  0.34908849    -0.23900
H2383       H  0.89646968  0.31311694  0.35341722     0.17300
C2384       C  0.87307167  0.25587074  0.35767966     0.25300
C2385       C  0.87335209  0.22079934  0.35865732    -0.12400
C2386       C  0.87377558  0.20434975  0.37523437    -0.26500
C2387       C  0.87356045  0.22352708  0.39094923     0.36200
C2388       C  0.87353944  0.25874912  0.38998115    -0.28100
F2389       F  0.87221109  0.27085630  0.34141887    -0.20200
H2390       H  0.87330774  0.20636696  0.34639969     0.15500
F2391       F  0.87440661  0.20827257  0.40714352    -0.23900
H2392       H  0.87405930  0.27314435  0.40223004     0.17300
C2393       C  0.02475871  0.98375311  0.37603074    -0.28000
C2394       C  0.01333947  0.96698012  0.38789783     0.05600
C2395       C  0.02058417  0.94410549  0.40020812     0.25200
C2396       C  0.03887968  0.93710969  0.40006718    -0.12500
C2397       C  0.05036175  0.95295629  0.38774816    -0.26400
C2398       C  0.04311622  0.97725069  0.37606720     0.36100
C2399       C  0.99388725  0.97325377  0.38713399     0.05600
F2400       F  0.00987658  0.92752559  0.41189060    -0.20200
H2401       H  0.04393796  0.91841621  0.40929803     0.15500
F2402       F  0.05366946  0.99475682  0.36464698    -0.23900
H2403       H  0.01940306  0.00199351  0.36670439     0.17300
C2404       C  0.98483960  0.98722461  0.40173567     0.25300
C2405       C  0.96661008  0.99441422  0.40055890    -0.12400
C2406       C  0.95694715  0.98757811  0.38483951    -0.26500
C2407       C  0.96608398  0.97290016  0.37031258     0.36200
C2408       C  0.98437506  0.96609441  0.37148207    -0.28100
F2409       F  0.99377483  0.99501352  0.41692669    -0.20200
H2410       H  0.96012954  0.00582211  0.41196487     0.15500
F2411       F  0.95756840  0.96570518  0.35481319    -0.23900
H2412       H  0.99118324  0.95525727  0.36010031     0.17300
C2413       C  0.86823890  0.99802851  0.26611118    -0.28000
C2414       C  0.88037184  0.97361102  0.26015953     0.05600
C2415       C  0.89278488  0.96030066  0.27240521     0.25200
C2416       C  0.89270747  0.97084549  0.29026951    -0.12500
C2417       C  0.88013237  0.99455116  0.29637129    -0.26400
C2418       C  0.86804201  0.00840140  0.28391300     0.36100
C2419       C  0.87993151  0.96249082  0.24117772     0.05600
F2420       F  0.90452281  0.93612641  0.26729860    -0.20200
H2421       H  0.90221453  0.95971987  0.29942288     0.15500
F2422       F  0.85592548  0.03205307  0.28881493    -0.23900
H2423       H  0.85884086  0.00926911  0.25688346     0.17300
C2424       C  0.86374314  0.95333797  0.23293987     0.25300
C2425       C  0.86343257  0.94351019  0.21499812    -0.12400
C2426       C  0.87918608  0.94281894  0.20478900    -0.26500
C2427       C  0.89534953  0.95216492  0.21303015     0.36200
C2428       C  0.89566883  0.96179204  0.23100521    -0.28100
F2429       F  0.84824209  0.95322761  0.24232720    -0.20200
H2430       H  0.85078983  0.93652334  0.20905562     0.15500
F2431       F  0.91096763  0.95117547  0.20389851    -0.23900
H2432       H  0.90825890  0.96907118  0.23695111     0.17300
C2433       C  0.73345068  0.59565105  0.35476179    -0.28000
C2434       C  0.74303078  0.59157548  0.37068249     0.05600
C2435       C  0.73370155  0.58990880  0.38692340     0.25200
C2436       C  0.71506875  0.59244722  0.38715420    -0.12500
C2437       C  0.70543632  0.59709141  0.37121995    -0.26400
C2438       C  0.71489135  0.59851886  0.35495626     0.36100
C2439       C  0.76273478  0.58925599  0.37011481     0.05600
F2440       F  0.74259407  0.58543385  0.40252311    -0.20200
H2441       H  0.70821426  0.59137442  0.39986492     0.15500
F2442       F  0.70627955  0.60262897  0.33916917    -0.23900
H2443       H  0.74041785  0.59714750  0.34211807     0.17300
C2444       C  0.77110507  0.56585230  0.35887038     0.25300
C2445       C  0.78966241  0.56451515  0.35786095    -0.12400
C2446       C  0.80034266  0.58621282  0.36815687    -0.26500
C2447       C  0.79194334  0.60956611  0.37952240     0.36200
C2448       C  0.77328676  0.61106271  0.38041106    -0.28100
F2449       F  0.76133340  0.54365287  0.34918188    -0.20200
H2450       H  0.79567449  0.54583635  0.34922576     0.15500
F2451       F  0.80166446  0.63130310  0.38952529    -0.23900
H2452       H  0.76704560  0.62956879  0.38898663     0.17300
C2453       C  0.63422563  0.92217692  0.39324300    -0.28000
C2454       C  0.62553434  0.90594442  0.37898056     0.05600
C2455       C  0.61671351  0.92565435  0.36616759     0.25200
C2456       C  0.61657305  0.96059882  0.36761915    -0.12500
C2457       C  0.62541030  0.97706495  0.38171221    -0.26400
C2458       C  0.63433102  0.95738463  0.39456343     0.36100
C2459       C  0.62568605  0.86861968  0.37747985     0.05600
F2460       F  0.60866608  0.91127701  0.35185677    -0.20200
H2461       H  0.60973651  0.97481544  0.35735070     0.15500
F2462       F  0.64299340  0.97193521  0.40846049    -0.23900
H2463       H  0.64086656  0.90754560  0.40347456     0.17300
C2464       C  0.64154643  0.85033348  0.37999538     0.25300
C2465       C  0.64139534  0.81523504  0.37923794    -0.12400
C2466       C  0.62552983  0.79747566  0.37565468    -0.26500
C2467       C  0.60978051  0.81577551  0.37251625     0.36200
C2468       C  0.60987688  0.85095484  0.37356485    -0.28100
F2469       F  0.65727969  0.86635895  0.38290856    -0.20200
H2470       H  0.65381128  0.80189699  0.38146271     0.15500
F2471       F  0.59414338  0.79974264  0.36919346    -0.23900
H2472       H  0.59743017  0.86437111  0.37174064     0.17300
C2473       C  0.61555402  0.35234111  0.37215628    -0.28000
C2474       C  0.63098922  0.36916102  0.37798130     0.05600
C2475       C  0.64605748  0.35031831  0.38281010     0.25200
C2476       C  0.64562453  0.31526067  0.38193140    -0.12500
C2477       C  0.63018648  0.29821311  0.37618343    -0.26400
C2478       C  0.61511467  0.31717676  0.37120101     0.36100
C2479       C  0.63138984  0.40633760  0.37867940     0.05600
F2480       F  0.66132722  0.36584397  0.38801985    -0.20200
H2481       H  0.65748948  0.30139861  0.38570962     0.15500
F2482       F  0.59981386  0.30185413  0.36593155    -0.23900
H2483       H  0.60374401  0.36651306  0.36852497     0.17300
C2484       C  0.62672240  0.42524516  0.36357432     0.25300
C2485       C  0.62654604  0.46023204  0.36435042    -0.12400
C2486       C  0.63109638  0.47719101  0.38014215    -0.26500
C2487       C  0.63628915  0.45836176  0.39518751     0.36200
C2488       C  0.63636927  0.42313211  0.39442231    -0.28100
F2489       F  0.62254714  0.40988029  0.34796050    -0.20200
H2490       H  0.62282119  0.47416589  0.35248749     0.15500
F2491       F  0.64057204  0.47380558  0.41075774    -0.23900
H2492       H  0.63995891  0.40890792  0.40622619     0.17300
C2493       C  0.73245922  0.08414781  0.39204359    -0.28000
C2494       C  0.74174319  0.08241152  0.37577303     0.05600
C2495       C  0.73201540  0.08178694  0.35973815     0.25200
C2496       C  0.71347077  0.08330806  0.36000666    -0.12500
C2497       C  0.70412678  0.08565611  0.37621028    -0.26400
C2498       C  0.71379587  0.08571293  0.39231983     0.36100
C2499       C  0.76149702  0.08057104  0.37543443     0.05600
F2500       F  0.74043753  0.08083341  0.34370842    -0.20200
H2501       H  0.70642094  0.08334770  0.34738769     0.15500
F2502       F  0.70533800  0.08851851  0.40826922    -0.23900
H2503       H  0.73967386  0.08423492  0.40456044     0.17300
C2504       C  0.77211048  0.10313198  0.38526652     0.25300
C2505       C  0.79076586  0.10126822  0.38432142    -0.12400
C2506       C  0.79913268  0.07732131  0.37332375    -0.26500
C2507       C  0.78839023  0.05469299  0.36359033     0.36200
C2508       C  0.76985960  0.05622452  0.36480612    -0.28100
F2509       F  0.76447354  0.12765100  0.39529578    -0.20200
H2510       H  0.79865902  0.11899660  0.39193360     0.15500
F2511       F  0.79570283  0.03048803  0.35311481    -0.23900
H2512       H  0.76198366  0.03812924  0.35741370     0.17300
C2513       C  0.73722605  0.84560418  0.12095755    -0.28000
C2514       C  0.74780171  0.82495235  0.13189657     0.05600
C2515       C  0.73944520  0.80242945  0.14369779     0.25200
C2516       C  0.72092330  0.80109613  0.14476217    -0.12500
C2517       C  0.71024076  0.82145229  0.13373695    -0.26400
C2518       C  0.71860698  0.84373279  0.12171104     0.36100
C2519       C  0.76749092  0.82765924  0.13156049     0.05600
F2520       F  0.74919232  0.78088757  0.15384906    -0.20200
H2521       H  0.71496940  0.78326279  0.15393898     0.15500
F2522       F  0.70890231  0.86386854  0.11076003    -0.23900
H2523       H  0.74338382  0.86347959  0.11194290     0.17300
C2524       C  0.77709774  0.82774599  0.11542971     0.25300
C2525       C  0.79572147  0.83045135  0.11560231    -0.12400
C2526       C  0.80502085  0.83331434  0.13183182    -0.26500
C2527       C  0.79532182  0.83262193  0.14793625     0.36200
C2528       C  0.77681017  0.83009895  0.14772094    -0.28100
F2529       F  0.76852402  0.82499344  0.09954593    -0.20200
H2530       H  0.80280844  0.83120734  0.10301159     0.15500
F2531       F  0.80364793  0.83471737  0.16398315    -0.23900
H2532       H  0.76969131  0.83056237  0.16029848     0.17300
C2533       C  0.63715507  0.69705036  0.27070704    -0.28000
C2534       C  0.62322681  0.71764862  0.26467271     0.05600
C2535       C  0.60971768  0.72694590  0.27673896     0.25200
C2536       C  0.61057433  0.71655845  0.29467456    -0.12500
C2537       C  0.62469292  0.69607506  0.30081765    -0.26400
C2538       C  0.63788481  0.68612730  0.28839124     0.36100
C2539       C  0.62318566  0.72860018  0.24569227     0.05600
F2540       F  0.59587371  0.74642651  0.27126755    -0.20200
H2541       H  0.60010364  0.72440805  0.30371951     0.15500
F2542       F  0.65154193  0.66551952  0.29311577    -0.23900
H2543       H  0.64748289  0.68894468  0.26154378     0.17300
C2544       C  0.63842945  0.74383672  0.23834822     0.25300
C2545       C  0.63961144  0.74965896  0.22002456    -0.12400
C2546       C  0.62568966  0.74031235  0.20841928    -0.26500
C2547       C  0.61002251  0.72642714  0.21591286     0.36200
C2548       C  0.60882544  0.72078141  0.23438682    -0.28100
F2549       F  0.65240187  0.75255928  0.24890352    -0.20200
H2550       H  0.65173239  0.76096578  0.21492036     0.15500
F2551       F  0.59600868  0.71755736  0.20547278    -0.23900
H2552       H  0.59696550  0.70895074  0.23976838     0.17300
C2553       C  0.61970834  0.49797763  0.14319880    -0.28000
C2554       C  0.62752586  0.51580203  0.12907981     0.05600
C2555       C  0.63629879  0.49784821  0.11546146     0.25200
C2556       C  0.63711371  0.46271832  0.11600266    -0.12500
C2557       C  0.62913732  0.44479716  0.13006078    -0.26400
C2558       C  0.62046951  0.46291341  0.14375219     0.36100
C2559       C  0.62729591  0.55308250  0.12912806     0.05600
F2560       F  0.64382104  0.51423694  0.10145086    -0.20200
H2561       H  0.64375385  0.44953368  0.10524096     0.15500
F2562       F  0.61297712  0.44692064  0.15791057    -0.23900
H2563       H  0.61328665  0.51128686  0.15405001     0.17300
C2564       C  0.61149087  0.57132876  0.13237535     0.25300
C2565       C  0.61178039  0.60657807  0.13267074    -0.12400
C2566       C  0.62774808  0.62409131  0.12952008    -0.26500
C2567       C  0.64350861  0.60569038  0.12629489     0.36200
C2568       C  0.64324776  0.57066438  0.12628934    -0.28100
F2569       F  0.59572340  0.55514955  0.13482189    -0.20200
H2570       H  0.59946320  0.62018434  0.13496576     0.15500
F2571       F  0.65932931  0.62147583  0.12346988    -0.23900
H2572       H  0.65564839  0.55719817  0.12422308     0.17300
C2573       C  0.64273304  0.07090622  0.11692362    -0.28000
C2574       C  0.63082981  0.05214630  0.12732913     0.05600
C2575       C  0.61759358  0.06921247  0.13715877     0.25200
C2576       C  0.61691204  0.10449604  0.13711391    -0.12500
C2577       C  0.62912712  0.12336817  0.12693459    -0.26400
C2578       C  0.64180356  0.10589807  0.11646381     0.36100
C2579       C  0.63273671  0.01498560  0.12816715     0.05600
F2580       F  0.60515289  0.05178110  0.14655480    -0.20200
H2581       H  0.60677742  0.11699903  0.14499860     0.15500
F2582       F  0.65365736  0.12240004  0.10591858    -0.23900
H2583       H  0.65311094  0.05846027  0.10933520     0.17300
C2584       C  0.63512659  0.99578705  0.11254058     0.25300
C2585       C  0.63673168  0.96080558  0.11355864    -0.12400
C2586       C  0.63582558  0.94435312  0.13009343    -0.26500
C2587       C  0.63440005  0.96355831  0.14576454     0.36200
C2588       C  0.63284809  0.99855563  0.14477214    -0.28100
F2589       F  0.63518645  0.01062366  0.09621946    -0.20200
H2590       H  0.63787663  0.94643497  0.10133453     0.15500
F2591       F  0.63464832  0.94846849  0.16202432    -0.23900
H2592       H  0.63178327  0.01288304  0.15701051     0.17300
C2593       C  0.73518129  0.33988951  0.11204402    -0.28000
C2594       C  0.74606977  0.33247460  0.12671731     0.05600
C2595       C  0.73823237  0.32149571  0.14270400     0.25200
C2596       C  0.71975406  0.31831688  0.14402723    -0.12500
C2597       C  0.70866433  0.32597419  0.12943228    -0.26400
C2598       C  0.71663574  0.33667554  0.11330652     0.36100
C2599       C  0.76551483  0.33793056  0.12576609     0.05600
F2600       F  0.74851087  0.31344156  0.15700121    -0.20200
H2601       H  0.71416103  0.30971343  0.15655178     0.15500
F2602       F  0.70665473  0.34368006  0.09866329    -0.23900
H2603       H  0.74105433  0.34860426  0.09966490     0.17300
C2604       C  0.77623947  0.32095913  0.11329954     0.25300
C2605       C  0.79479411  0.32557363  0.11336396    -0.12400
C2606       C  0.80283675  0.34759145  0.12568607    -0.26500
C2607       C  0.79178874  0.36528799  0.13775714     0.36200
C2608       C  0.77342549  0.36023202  0.13779870    -0.28100
F2609       F  0.76881301  0.29939731  0.10139370    -0.20200
H2610       H  0.80284320  0.31175788  0.10386306     0.15500
F2611       F  0.79856908  0.38778354  0.14956107    -0.23900
H2612       H  0.76527831  0.37394371  0.14727584     0.17300
C2613       C  0.64743792  0.21358829  0.23430008    -0.28000
C2614       C  0.63101535  0.20762721  0.24275920     0.05600
C2615       C  0.61521886  0.21087965  0.23272937     0.25200
C2616       C  0.61593516  0.22016540  0.21468220    -0.12500
C2617       C  0.63238000  0.22658176  0.20625274    -0.26400
C2618       C  0.64818072  0.22289815  0.21630042     0.36100
C2619       C  0.63055242  0.19872768  0.26207139     0.05600
F2620       F  0.59909815  0.20456399  0.24029115    -0.20200
H2621       H  0.60355581  0.22270352  0.20734465     0.15500
F2622       F  0.66443109  0.22773721  0.20871486    -0.23900
H2623       H  0.65977879  0.21144474  0.24173816     0.17300
C2624       C  0.64145230  0.17296878  0.26895681     0.25300
C2625       C  0.64141353  0.16571867  0.28723643    -0.12400
C2626       C  0.63053149  0.18392101  0.29915614    -0.26500
C2627       C  0.61959051  0.20967709  0.29220033     0.36200
C2628       C  0.61964070  0.21688270  0.27388797    -0.28100
F2629       F  0.65196990  0.15440638  0.25797352    -0.20200
H2630       H  0.64990271  0.14557613  0.29202730     0.15500
F2631       F  0.60912062  0.22852362  0.30306409    -0.23900
H2632       H  0.61137629  0.23723797  0.26896243     0.17300
C2633       C  0.27261284  0.83899797  0.38889291    -0.28000
C2634       C  0.26299973  0.83580381  0.37290997     0.05600
C2635       C  0.27234651  0.83106250  0.35687086     0.25200
C2636       C  0.29096276  0.82976623  0.35682636    -0.12500
C2637       C  0.30072932  0.83338410  0.37274764    -0.26400
C2638       C  0.29132296  0.83796481  0.38886203     0.36100
C2639       C  0.24332940  0.83956387  0.37272304     0.05600
F2640       F  0.26342513  0.82732668  0.34123392    -0.20200
H2641       H  0.29775073  0.82593595  0.34422859     0.15500
F2642       F  0.30011459  0.84063986  0.40462410    -0.23900
H2643       H  0.26560916  0.84282857  0.40137028     0.17300
C2644       C  0.23213849  0.81802279  0.38255320     0.25300
C2645       C  0.21353906  0.82219429  0.38196986    -0.12400
C2646       C  0.20581172  0.84775131  0.37148262    -0.26500
C2647       C  0.21720460  0.86931331  0.36171632     0.36200
C2648       C  0.23568028  0.86515727  0.36239542    -0.28100
F2649       F  0.23916731  0.79249966  0.39233781    -0.20200
H2650       H  0.20517634  0.80520680  0.38957963     0.15500
F2651       F  0.21062304  0.89506014  0.35178007    -0.23900
H2652       H  0.24411396  0.88223779  0.35490472     0.17300
C2653       C  0.48348800  0.70730796  0.37984126    -0.28000
C2654       C  0.49442752  0.72323199  0.39241439     0.05600
C2655       C  0.48702651  0.74711505  0.40398076     0.25200
C2656       C  0.46887006  0.75511521  0.40287502    -0.12500
C2657       C  0.45777800  0.73972977  0.39003366    -0.26400
C2658       C  0.46533174  0.71530135  0.37863818     0.36100
C2659       C  0.51372155  0.71589562  0.39279914     0.05600
F2660       F  0.49751707  0.76354484  0.41589178    -0.20200
H2661       H  0.46363412  0.77411637  0.41180332     0.15500
F2662       F  0.45531420  0.69925011  0.36621043    -0.23900
H2663       H  0.48909916  0.68885922  0.37080353     0.17300
C2664       C  0.52095538  0.69383607  0.40550426     0.25300
C2665       C  0.53913881  0.68572854  0.40502461    -0.12400
C2666       C  0.55042913  0.69964822  0.39190724    -0.26500
C2667       C  0.54310930  0.72283860  0.37961192     0.36200
C2668       C  0.52492232  0.73059055  0.38004635    -0.28100
F2669       F  0.51033104  0.67944002  0.41803780    -0.20200
H2670       H  0.54424882  0.66780065  0.41464518     0.15500
F2671       F  0.55338262  0.73781495  0.36697750    -0.23900
H2672       H  0.51949771  0.74793042  0.37028574     0.17300
C2673       C  0.36540375  0.58365021  0.38261185    -0.28000
C2674       C  0.38103952  0.56577520  0.37862103     0.05600
C2675       C  0.39654544  0.58376979  0.37386851     0.25200
C2676       C  0.39636000  0.61893369  0.37344467    -0.12500
C2677       C  0.38079227  0.63675713  0.37780208    -0.26400
C2678       C  0.36521441  0.61871870  0.38221948     0.36100
C2679       C  0.38080263  0.52847118  0.37881231     0.05600
F2680       F  0.41198839  0.56746729  0.36999684    -0.20200
H2681       H  0.40851439  0.63224409  0.37005252     0.15500
F2682       F  0.34962785  0.63486763  0.38570565    -0.23900
H2683       H  0.35316003  0.57040080  0.38571919     0.17300
C2684       C  0.37296643  0.51045563  0.39300265     0.25300
C2685       C  0.37261793  0.47526609  0.39277864    -0.12400
C2686       C  0.38009256  0.45740010  0.37846492    -0.26500
C2687       C  0.38756731  0.47556753  0.36408616     0.36200
C2688       C  0.38790316  0.51062997  0.36434180    -0.28100
F2689       F  0.36598121  0.52679306  0.40728176    -0.20200
H2690       H  0.36678561  0.46199567  0.40398223     0.15500
F2691       F  0.39423425  0.45961088  0.34952240    -0.23900
H2692       H  0.39345500  0.52390312  0.35299626     0.17300
C2693       C  0.36334333  0.08405438  0.37646875    -0.28000
C2694       C  0.37923876  0.06558083  0.37543138     0.05600
C2695       C  0.39558838  0.08283410  0.37411518     0.25200
C2696       C  0.39594346  0.11805094  0.37376195    -0.12500
C2697       C  0.38003662  0.13658020  0.37497309    -0.26400
C2698       C  0.36368194  0.11919060  0.37628261     0.36100
C2699       C  0.37864269  0.02836697  0.37517762     0.05600
F2700       F  0.41123029  0.06560512  0.37368122    -0.20200
H2701       H  0.40868555  0.13085209  0.37304665     0.15500
F2702       F  0.34796176  0.13612946  0.37708924    -0.23900
H2703       H  0.35061564  0.07120059  0.37722591     0.17300
C2704       C  0.36995684  0.01014572  0.38872898     0.25300
C2705       C  0.36979342  0.97494128  0.38835237    -0.12400
C2706       C  0.37831000  0.95730004  0.37449301    -0.26500
C2707       C  0.38656284  0.97578865  0.36067409     0.36200
C2708       C  0.38671145  0.01089070  0.36110120    -0.28100
F2709       F  0.36215101  0.02633673  0.40262900    -0.20200
H2710       H  0.36333930  0.96150075  0.39915067     0.15500
F2711       F  0.39440415  0.96011914  0.34662133    -0.23900
H2712       H  0.39310646  0.02454755  0.35033801     0.17300
C2713       C  0.23337521  0.32934537  0.38923353    -0.28000
C2714       C  0.24397973  0.34959364  0.37807211     0.05600
C2715       C  0.23555173  0.37236244  0.36646078     0.25200
C2716       C  0.21696670  0.37420948  0.36571083    -0.12500
C2717       C  0.20620565  0.35362883  0.37658762    -0.26400
C2718       C  0.21466067  0.33131503  0.38857681     0.36100
C2719       C  0.26374125  0.34608672  0.37786908     0.05600
F2720       F  0.24532439  0.39328484  0.35597766    -0.20200
H2721       H  0.21099592  0.39220649  0.35663460     0.15500
F2722       F  0.20495196  0.31083869  0.39934542    -0.23900
H2723       H  0.23959908  0.31145682  0.39819946     0.17300
C2724       C  0.27395864  0.34876789  0.39354909     0.25300
C2725       C  0.29264034  0.34600407  0.39286296    -0.12400
C2726       C  0.30144397  0.33998913  0.37657040    -0.26500
C2727       C  0.29107139  0.33740328  0.36090087     0.36200
C2728       C  0.27251943  0.34042026  0.36162142    -0.28100
F2729       F  0.26589447  0.35451421  0.40947041    -0.20200
H2730       H  0.30018117  0.34796490  0.40514140     0.15500
F2731       F  0.29879162  0.33217276  0.34474807    -0.23900
H2732       H  0.26492418  0.33805261  0.34938889     0.17300
C2733       C  0.52498403  0.22603629  0.37112812    -0.28000
C2734       C  0.51486218  0.21886811  0.38644696     0.05600
C2735       C  0.52346092  0.20514212  0.40141396     0.25200
C2736       C  0.54176489  0.19856563  0.40101427    -0.12500
C2737       C  0.55201710  0.20522266  0.38564515    -0.26400
C2738       C  0.54336113  0.21934483  0.37065861     0.36100
C2739       C  0.49530286  0.22490977  0.38664190     0.05600
F2740       F  0.51401716  0.19670532  0.41621292    -0.20200
H2741       H  0.54779639  0.18733097  0.41271949     0.15500
F2742       F  0.55242822  0.22593165  0.35537765    -0.23900
H2743       H  0.51859256  0.23666003  0.35944489     0.17300
C2744       C  0.48736949  0.24416460  0.40020835     0.25300
C2745       C  0.46897132  0.24983394  0.40021470    -0.12400
C2746       C  0.45799591  0.23670327  0.38663683    -0.26500
C2747       C  0.46594497  0.21667560  0.37327965     0.36200
C2748       C  0.48441093  0.21107905  0.37328778    -0.28100
F2749       F  0.49748986  0.25862242  0.41311554    -0.20200
H2750       H  0.46343209  0.26548675  0.41065999     0.15500
F2751       F  0.45600612  0.20272695  0.36008723    -0.23900
H2752       H  0.49024267  0.19578121  0.36284870     0.17300
C2753       C  0.27633384  0.57656288  0.11794521    -0.28000
C2754       C  0.26598284  0.59651204  0.12946947     0.05600
C2755       C  0.27458394  0.61866120  0.14122211     0.25200
C2756       C  0.29312535  0.62020857  0.14176904    -0.12500
C2757       C  0.30364414  0.59997821  0.13051537    -0.26400
C2758       C  0.29503808  0.57828341  0.11838619     0.36100
C2759       C  0.24629678  0.59329158  0.12998730     0.05600
F2760       F  0.26501704  0.63924456  0.15206195    -0.20200
H2761       H  0.29924100  0.63780589  0.15094205     0.15500
F2762       F  0.30460015  0.55826496  0.10726746    -0.23900
H2763       H  0.26992889  0.55914702  0.10887213     0.17300
C2764       C  0.23585518  0.59671043  0.11451617     0.25300
C2765       C  0.21722789  0.59422083  0.11554601    -0.12400
C2766       C  0.20872333  0.58830319  0.13200898    -0.26500
C2767       C  0.21928588  0.58541412  0.14749643     0.36200
C2768       C  0.23781780  0.58762875  0.14640174    -0.28100
F2769       F  0.24362097  0.60316960  0.09851345    -0.20200
H2770       H  0.20948255  0.59648660  0.10340565     0.15500
F2771       F  0.21177005  0.58077405  0.16379871    -0.23900
H2772       H  0.24562329  0.58487327  0.15848185     0.17300
C2773       C  0.48784564  0.69876367  0.10713539    -0.28000
C2774       C  0.49514572  0.71991092  0.12017018     0.05600
C2775       C  0.48366502  0.73543002  0.13254518     0.25200
C2776       C  0.46527890  0.72897037  0.13210570    -0.12500
C2777       C  0.45797185  0.70713652  0.11926310    -0.26400
C2778       C  0.46955412  0.69243723  0.10657639     0.36100
C2779       C  0.51471610  0.72553647  0.12043965     0.05600
F2780       F  0.49016227  0.75713356  0.14491014    -0.20200
H2781       H  0.45678973  0.74081618  0.14196650     0.15500
F2782       F  0.46344743  0.67092609  0.09391465    -0.23900
H2783       H  0.49643445  0.68647146  0.09750507     0.17300
C2784       C  0.52475040  0.72098166  0.13610911     0.25300
C2785       C  0.54325476  0.72536984  0.13585529    -0.12400
C2786       C  0.55214970  0.73441154  0.12001939    -0.26500
C2787       C  0.54210481  0.73823533  0.10425840     0.36200
C2788       C  0.52361420  0.73387816  0.10454560    -0.28100
F2789       F  0.51676554  0.71162030  0.15159250    -0.20200
H2790       H  0.55057045  0.72227082  0.14820802     0.15500
F2791       F  0.55007284  0.74610105  0.08852737    -0.23900
H2792       H  0.51616753  0.73723169  0.09228537     0.17300
C2793       C  0.39067754  0.73089391  0.23186082    -0.28000
C2794       C  0.38155021  0.71068959  0.24428828     0.05600
C2795       C  0.37170815  0.68300563  0.23796179     0.25200
C2796       C  0.37101943  0.67578993  0.21970060    -0.12500
C2797       C  0.38012573  0.69588265  0.20718192    -0.26400
C2798       C  0.38994632  0.72374027  0.21350647     0.36100
C2799       C  0.38142336  0.71933217  0.26367616     0.05600
F2800       F  0.36290249  0.66254714  0.24950489    -0.20200
H2801       H  0.36344451  0.65406502  0.21538290     0.15500
F2802       F  0.39840117  0.74470174  0.20196608    -0.23900
H2803       H  0.39803306  0.75277045  0.23633669     0.17300
C2804       C  0.39729284  0.72489677  0.27333570     0.25300
C2805       C  0.39666675  0.73227512  0.29167055    -0.12400
C2806       C  0.38022778  0.73536511  0.30060820    -0.26500
C2807       C  0.36439139  0.72992454  0.29084719     0.36200
C2808       C  0.36505806  0.72189187  0.27270018    -0.28100
F2809       F  0.41339768  0.72314262  0.26510158    -0.20200
H2810       H  0.40904508  0.73664697  0.29875760     0.15500
F2811       F  0.34816193  0.73225851  0.29880761    -0.23900
H2812       H  0.35264576  0.71816925  0.26556418     0.17300
C2813       C  0.36130598  0.85783352  0.12810381    -0.28000
C2814       C  0.37671273  0.87638978  0.13200955     0.05600
C2815       C  0.39252132  0.85919248  0.13643993     0.25200
C2816       C  0.39289051  0.82400373  0.13676623    -0.12500
C2817       C  0.37759316  0.80530379  0.13243422    -0.26400
C2818       C  0.36166910  0.82268114  0.12829047     0.36100
C2819       C  0.37617235  0.91363268  0.13171695     0.05600
F2820       F  0.40779032  0.87643008  0.13979806    -0.20200
H2821       H  0.40532607  0.81138545  0.13986498     0.15500
F2822       F  0.34635695  0.80582143  0.12457801    -0.23900
H2823       H  0.34892104  0.87063580  0.12499103     0.17300
C2824       C  0.36986514  0.93129745  0.11670084     0.25300
C2825       C  0.36981308  0.96654310  0.11657650    -0.12400
C2826       C  0.37635800  0.98467128  0.13127700    -0.26500
C2827       C  0.38227567  0.96681606  0.14643239     0.36200
C2828       C  0.38212037  0.93172755  0.14660039    -0.28100
F2829       F  0.36452000  0.91449301  0.10187826    -0.20200
H2830       H  0.36524514  0.97962268  0.10473960     0.15500
F2831       F  0.38813133  0.98320257  0.16119762    -0.23900
H2832       H  0.38670168  0.91858497  0.15841476     0.17300
C2833       C  0.39211497  0.43112306  0.14006201    -0.28000
C2834       C  0.38696495  0.41350170  0.12474412     0.05600
C2835       C  0.38121553  0.43156040  0.10963004     0.25200
C2836       C  0.38038678  0.46673919  0.11004789    -0.12500
C2837       C  0.38529635  0.48436154  0.12552004    -0.26400
C2838       C  0.39127595  0.46612407  0.14052640     0.36100
C2839       C  0.38634818  0.37633593  0.12523513     0.05600
F2840       F  0.37647146  0.41516565  0.09447618    -0.20200
H2841       H  0.37600069  0.48019279  0.09825924     0.15500
F2842       F  0.39568603  0.48196306  0.15594916    -0.23900
H2843       H  0.39623760  0.41766026  0.15194405     0.17300
C2844       C  0.40106912  0.35733689  0.13111936     0.25300
C2845       C  0.39982386  0.32229451  0.13248756    -0.12400
C2846       C  0.38398787  0.30563664  0.12777464    -0.26500
C2847       C  0.36923953  0.32485291  0.12196587     0.36200
C2848       C  0.37045976  0.35979015  0.12079871    -0.28100
F2849       F  0.41675798  0.37260338  0.13515437    -0.20200
H2850       H  0.41138445  0.30811814  0.13683403     0.15500
F2851       F  0.35347098  0.31005640  0.11772968    -0.23900
H2852       H  0.35883676  0.37405121  0.11668428     0.17300
C2853       C  0.23510175  0.09096987  0.14801519    -0.28000
C2854       C  0.24372834  0.09934920  0.13202954     0.05600
C2855       C  0.23351441  0.10501922  0.11660774     0.25200
C2856       C  0.21494395  0.10162411  0.11717977    -0.12500
C2857       C  0.20629209  0.09213080  0.13308055    -0.26400
C2858       C  0.21662275  0.08732624  0.14861597     0.36100
C2859       C  0.26338878  0.10192514  0.13174851     0.05600
F2860       F  0.24147913  0.11393554  0.10103901    -0.20200
H2861       H  0.20740573  0.10556572  0.10503061     0.15500
F2862       F  0.20900583  0.07861949  0.16439895    -0.23900
H2863       H  0.24277740  0.08649882  0.16003593     0.17300
C2864       C  0.27214506  0.12252580  0.14412438     0.25300
C2865       C  0.29069355  0.12383361  0.14449611    -0.12400
C2866       C  0.30104745  0.10482304  0.13247391    -0.26500
C2867       C  0.29222604  0.08407594  0.12002605     0.36200
C2868       C  0.27353162  0.08270350  0.11972823    -0.28100
F2869       F  0.26272874  0.14193937  0.15568228    -0.20200
H2870       H  0.29692126  0.14037154  0.15413244     0.15500
F2871       F  0.30153810  0.06484041  0.10832666    -0.23900
H2872       H  0.26695159  0.06624028  0.11028448     0.17300
C2873       C  0.48647262  0.20357685  0.10641388    -0.28000
C2874       C  0.49520613  0.21214187  0.12230901     0.05600
C2875       C  0.48519981  0.21617726  0.13800186     0.25200
C2876       C  0.46678107  0.21072722  0.13783266    -0.12500
C2877       C  0.45804515  0.20106785  0.12202696    -0.26400
C2878       C  0.46809164  0.19805688  0.10620278     0.36100
C2879       C  0.51467844  0.21776794  0.12216662     0.05600
F2880       F  0.49320785  0.22569931  0.15343303    -0.20200
H2881       H  0.45944343  0.21332141  0.15020544     0.15500
F2882       F  0.46023326  0.18971480  0.09049895    -0.23900
H2883       H  0.49398289  0.20074575  0.09415241     0.17300
C2884       C  0.52610595  0.19979742  0.13359285     0.25300
C2885       C  0.54454472  0.20557176  0.13313722    -0.12400
C2886       C  0.55186414  0.22927944  0.12123856    -0.26500
C2887       C  0.54023171  0.24703873  0.10974495     0.36200
C2888       C  0.52191033  0.24114666  0.11022335    -0.28100
F2889       F  0.51944803  0.17634654  0.14497340    -0.20200
H2890       H  0.55307378  0.19158656  0.14215108     0.15500
F2891       F  0.54635753  0.27106276  0.09840637    -0.23900
H2892       H  0.51325707  0.25536974  0.10141881     0.17300
C2893       C  0.39306826  0.22570837  0.23375064    -0.28000
C2894       C  0.37926644  0.21427374  0.24493948     0.05600
C2895       C  0.36569087  0.19428345  0.23755553     0.25200
C2896       C  0.36573751  0.18651062  0.21939859    -0.12500
C2897       C  0.37935791  0.19821260  0.20802025    -0.26400
C2898       C  0.39323063  0.21767503  0.21551662     0.36100
C2899       C  0.37882423  0.22343359  0.26419907     0.05600
F2900       F  0.35249129  0.18159788  0.24798570    -0.20200
H2901       H  0.35500193  0.17103366  0.21429547     0.15500
F2902       F  0.40692669  0.22914208  0.20534926    -0.23900
H2903       H  0.40364528  0.24129381  0.23909355     0.17300
C2904       C  0.39391907  0.21941369  0.27515624     0.25300
C2905       C  0.39313004  0.22772926  0.29330026    -0.12400
C2906       C  0.37731757  0.24034547  0.30093263    -0.26500
C2907       C  0.36215126  0.24398484  0.28994472     0.36200
C2908       C  0.36299241  0.23577465  0.27182852    -0.28100
F2909       F  0.40933941  0.20676523  0.26843025    -0.20200
H2910       H  0.40502809  0.22463024  0.30133400     0.15500
F2911       F  0.34640947  0.25524870  0.29664309    -0.23900
H2912       H  0.35120549  0.23932331  0.26367673     0.17300
C2913       C  0.11359478  0.85073104  0.51820363    -0.28000
C2914       C  0.12501996  0.82668705  0.51069487     0.05600
C2915       C  0.13714260  0.80971555  0.52194057     0.25200
C2916       C  0.13764566  0.81680264  0.54032481    -0.12500
C2917       C  0.12599267  0.84073062  0.54782751    -0.26400
C2918       C  0.11394372  0.85763866  0.53640199     0.36100
C2919       C  0.12477025  0.82187497  0.49097301     0.05600
F2920       F  0.14828109  0.78596059  0.51522792    -0.20200
H2921       H  0.14704592  0.80337670  0.54868789     0.15500
F2922       F  0.10262971  0.88162885  0.54260429    -0.23900
H2923       H  0.10454046  0.86497422  0.50983145     0.17300
C2924       C  0.10846618  0.81960860  0.48166745     0.25300
C2925       C  0.10802678  0.82280575  0.46306331    -0.12400
C2926       C  0.12382132  0.82771500  0.45327592    -0.26500
C2927       C  0.14023761  0.82730442  0.46247727     0.36200
C2928       C  0.14064911  0.82447783  0.48111665    -0.28100
F2929       F  0.09285658  0.81570202  0.49064528    -0.20200
H2930       H  0.09522544  0.82269604  0.45635016     0.15500
F2931       F  0.15580764  0.83277060  0.45370160    -0.23900
H2932       H  0.15334271  0.82672343  0.48791633     0.17300
C2933       C  0.10820964  0.31915732  0.52244093    -0.28000
C2934       C  0.12376310  0.32341788  0.51217918     0.05600
C2935       C  0.13997108  0.33023033  0.52102622     0.25200
C2936       C  0.14030242  0.33425239  0.53959530    -0.12500
C2937       C  0.12446062  0.33257287  0.54957534    -0.26400
C2938       C  0.10847586  0.32402893  0.54088529     0.36100
C2939       C  0.12234132  0.32553128  0.49239061     0.05600
F2940       F  0.15518694  0.33596556  0.51168240    -0.20200
H2941       H  0.15274483  0.34104643  0.54600649     0.15500
F2942       F  0.09298986  0.32123872  0.55017489    -0.23900
H2943       H  0.09560837  0.31346721  0.51603975     0.17300
C2944       C  0.13495106  0.31064452  0.48090358     0.25300
C2945       C  0.13424717  0.31671513  0.46247717    -0.12400
C2946       C  0.12077494  0.33716403  0.45510066    -0.26500
C2947       C  0.10766912  0.35057922  0.46660753     0.36200
C2948       C  0.10853880  0.34482830  0.48491995    -0.28100
F2949       F  0.14788959  0.29013970  0.48742584    -0.20200
H2950       H  0.14440024  0.30568932  0.45401799     0.15500
F2951       F  0.09437583  0.37067673  0.46042605    -0.23900
H2952       H  0.09870353  0.35681233  0.49339215     0.17300
C2953       C  0.14076331  0.60413472  0.61308235    -0.28000
C2954       C  0.13383538  0.62279385  0.62732310     0.05600
C2955       C  0.12643902  0.60563435  0.64204480     0.25200
C2956       C  0.12552661  0.57045109  0.64213766    -0.12500
C2957       C  0.13237207  0.55180277  0.62777865    -0.26400
C2958       C  0.14024267  0.56910092  0.61332664     0.36100
C2959       C  0.13340634  0.66001445  0.62619832     0.05600
F2960       F  0.12030590  0.62287450  0.65642517    -0.20200
H2961       H  0.11966438  0.55779747  0.65352715     0.15500
F2962       F  0.14698132  0.55229485  0.59907402    -0.23900
H2963       H  0.14622093  0.61672777  0.60147872     0.17300
C2964       C  0.14845633  0.67870877  0.62079893     0.25300
C2965       C  0.14754441  0.71385296  0.61963317    -0.12400
C2966       C  0.13171972  0.73089499  0.62405517    -0.26500
C2967       C  0.11659667  0.71195422  0.62904930     0.36200
C2968       C  0.11747200  0.67700512  0.62997450    -0.28100
F2969       F  0.16418467  0.66314297  0.61722419    -0.20200
H2970       H  0.15937541  0.72777457  0.61582234     0.15500
F2971       F  0.10083180  0.72708957  0.63297672    -0.23900
H2972       H  0.10556371  0.66311973  0.63358086     0.17300
C2973       C  0.12138222  0.17854399  0.64408756    -0.28000
C2974       C  0.12696414  0.16019849  0.62913678     0.05600
C2975       C  0.13266178  0.17763292  0.61380066     0.25200
C2976       C  0.13297905  0.21281039  0.61359225    -0.12500
C2977       C  0.12730414  0.23125325  0.62852165    -0.26400
C2978       C  0.12151779  0.21368847  0.64384622     0.36100
C2979       C  0.12697670  0.12294847  0.62969709     0.05600
F2980       F  0.13745003  0.16065657  0.59883887    -0.20200
H2981       H  0.13727850  0.22563499  0.60157810     0.15500
F2982       F  0.11628580  0.23037557  0.65875541    -0.23900
H2983       H  0.11709793  0.16558333  0.65607010     0.17300
C2984       C  0.14236094  0.10486886  0.62498114     0.25300
C2985       C  0.14214662  0.06979864  0.62490228    -0.12400
C2986       C  0.12672046  0.05190857  0.62986006    -0.26500
C2987       C  0.11147978  0.06998961  0.63521646     0.36200
C2988       C  0.11163883  0.10524573  0.63506904    -0.28100
F2989       F  0.15773879  0.12112924  0.62079487    -0.20200
H2990       H  0.15419887  0.05657706  0.62107554     0.15500
F2991       F  0.09629106  0.05372957  0.64002831    -0.23900
H2992       H  0.09967001  0.11877513  0.63884884     0.17300
C2993       C  0.12461458  0.56063659  0.98855679    -0.28000
C2994       C  0.13160533  0.59129200  0.99460195     0.05600
C2995       C  0.13985702  0.61300835  0.98227542     0.25200
C2996       C  0.14023956  0.60467574  0.96405517    -0.12500
C2997       C  0.13231041  0.57467905  0.95789530    -0.26400
C2998       C  0.12497818  0.55229282  0.97051005     0.36100
C2999       C  0.12993997  0.59977264  0.01380820     0.05600
F3000       F  0.14679252  0.64283306  0.98772253    -0.20200
H3001       H  0.14619465  0.62220214  0.95471651     0.15500
F3002       F  0.11820167  0.52208186  0.96548261    -0.23900
H3003       H  0.11872902  0.54303709  0.99791156     0.17300
C3004       C  0.11324630  0.59748166  0.02227546     0.25300
C3005       C  0.11197493  0.59936701  0.04081680    -0.12400
C3006       C  0.12731817  0.60332942  0.05141798    -0.26500
C3007       C  0.14388814  0.60837918  0.04280823     0.36200
C3008       C  0.14512244  0.60654098  0.02415780    -0.28100
F3009       F  0.09820883  0.59185121  0.01262910    -0.20200
H3010       H  0.09899976  0.59583754  0.04691104     0.15500
F3011       F  0.15911827  0.61258710  0.05233719    -0.23900
H3012       H  0.15811386  0.60835455  0.01788931     0.17300
C3013       C  0.14746157  0.47936796  0.76901342    -0.28000
C3014       C  0.13134568  0.46878111  0.76129887     0.05600
C3015       C  0.11646763  0.46361071  0.77240531     0.25200
C3016       C  0.11773991  0.46927651  0.79084839    -0.12500
C3017       C  0.13388459  0.48000747  0.79860811    -0.26400
C3018       C  0.14878675  0.48497637  0.78737582     0.36100
C3019       C  0.13077078  0.46123010  0.74187326     0.05600
F3020       F  0.10090397  0.45194019  0.76553573    -0.20200
H3021       H  0.10602082  0.46540491  0.79905385     0.15500
F3022       F  0.16479077  0.49476978  0.79408615    -0.23900
H3023       H  0.15914341  0.48322663  0.76073601     0.17300
C3024       C  0.11820820  0.47616223  0.73033815     0.25300
C3025       C  0.11871464  0.46953190  0.71191678    -0.12400
C3026       C  0.13173452  0.44789321  0.70467623    -0.26500
C3027       C  0.14410186  0.43271456  0.71645780     0.36200
C3028       C  0.14356606  0.43942664  0.73469888    -0.28100
F3029       F  0.10575894  0.49777477  0.73678660    -0.20200
H3030       H  0.10894187  0.48142245  0.70333066     0.15500
F3031       F  0.15669970  0.41085940  0.71055191    -0.23900
H3032       H  0.15323208  0.42734378  0.74334380     0.17300
C3033       C  0.11385738  0.07304486  0.98512711    -0.28000
C3034       C  0.12578139  0.09660412  0.99226524     0.05600
C3035       C  0.13766820  0.11325425  0.98067590     0.25200
C3036       C  0.13767156  0.10585194  0.96232529    -0.12500
C3037       C  0.12563734  0.08213444  0.95520729    -0.26400
C3038       C  0.11355542  0.06616311  0.96693279     0.36100
C3039       C  0.12594488  0.10189799  0.01190721     0.05600
F3040       F  0.14900374  0.13703517  0.98702439    -0.20200
H3041       H  0.14699992  0.11883222  0.95368779     0.15500
F3042       F  0.10158342  0.04311440  0.96102314    -0.23900
H3043       H  0.10483383  0.05931428  0.99376906     0.17300
C3044       C  0.10979813  0.10538838  0.02134771     0.25300
C3045       C  0.10954659  0.10326733  0.03995133    -0.12400
C3046       C  0.12541624  0.09849572  0.04958829    -0.26500
C3047       C  0.14173510  0.09762033  0.04024409     0.36200
C3048       C  0.14193945  0.09907569  0.02156660    -0.28100
F3049       F  0.09414980  0.10973152  0.01251121    -0.20200
H3050       H  0.09683252  0.10439903  0.04681182     0.15500
F3051       F  0.15736239  0.09264279  0.04901442    -0.23900
H3052       H  0.15451529  0.09598174  0.01463437     0.17300
C3053       C  0.11647003  0.81290888  0.86490452    -0.28000
C3054       C  0.12498157  0.79613583  0.87908781     0.05600
C3055       C  0.13306436  0.81511526  0.89261109     0.25200
C3056       C  0.13291764  0.85007938  0.89179456    -0.12500
C3057       C  0.12470385  0.86714027  0.87749998    -0.26400
C3058       C  0.11631165  0.84814250  0.86406084     0.36100
C3059       C  0.12569118  0.75893238  0.87970770     0.05600
F3060       F  0.14089820  0.79986228  0.90681410    -0.20200
H3061       H  0.13929163  0.86380155  0.90252071     0.15500
F3062       F  0.10842068  0.86339669  0.84990036    -0.23900
H3063       H  0.11027421  0.79867368  0.85426365     0.17300
C3064       C  0.11012921  0.73968292  0.87764828     0.25300
C3065       C  0.11100102  0.70463016  0.87833469    -0.12400
C3066       C  0.12733437  0.68806593  0.88135978    -0.26500
C3067       C  0.14288918  0.70737001  0.88362214     0.36200
C3068       C  0.14204105  0.74246417  0.88267058    -0.28100
F3069       F  0.09401528  0.75475757  0.87544686    -0.20200
H3070       H  0.09879082  0.69038941  0.87665418     0.15500
F3071       F  0.15898380  0.69241261  0.88614105    -0.23900
H3072       H  0.15423760  0.75684841  0.88406626     0.17300
C3073       C  0.13783138  0.24103566  0.89441810    -0.28000
C3074       C  0.13060977  0.25915952  0.87998318     0.05600
C3075       C  0.12371050  0.24140940  0.86534912     0.25200
C3076       C  0.12375274  0.20636443  0.86529963    -0.12500
C3077       C  0.13091667  0.18804857  0.87968406    -0.26400
C3078       C  0.13805246  0.20576145  0.89429711     0.36100
C3079       C  0.13122628  0.29644889  0.87967899     0.05600
F3080       F  0.11758075  0.25791941  0.85071744    -0.20200
H3081       H  0.11844317  0.19353084  0.85371680     0.15500
F3082       F  0.14498976  0.18913979  0.90853139    -0.23900
H3083       H  0.14329826  0.25425955  0.90580239     0.17300
C3084       C  0.11609753  0.31563784  0.87510011     0.25300
C3085       C  0.11727306  0.35066309  0.87378748    -0.12400
C3086       C  0.13348227  0.36729843  0.87709286    -0.26500
C3087       C  0.14858941  0.34801473  0.88176813     0.36200
C3088       C  0.14738488  0.31301644  0.88310541    -0.28100
F3089       F  0.10010712  0.30060796  0.87211191    -0.20200
H3090       H  0.10537592  0.36483533  0.87046147     0.15500
F3091       F  0.16466665  0.36278410  0.88463163    -0.23900
H3092       H  0.15924938  0.29870759  0.88639237     0.17300
C3093       C  0.11841206  0.93369107  0.73416149    -0.28000
C3094       C  0.13158979  0.95369114  0.74232622     0.05600
C3095       C  0.14454064  0.96922980  0.73138957     0.25200
C3096       C  0.14455261  0.96397259  0.71291561    -0.12500
C3097       C  0.13128474  0.94432012  0.70489873    -0.26400
C3098       C  0.11811355  0.92937217  0.71562756     0.36100
C3099       C  0.13185854  0.95803155  0.76213413     0.05600
F3100       F  0.15698319  0.99011360  0.73846861    -0.20200
H3101       H  0.15484439  0.97552351  0.70481240     0.15500
F3102       F  0.10546863  0.90925343  0.70824915    -0.23900
H3103       H  0.10851603  0.92077016  0.74215923     0.17300
C3104       C  0.11602389  0.96396614  0.77179118     0.25300
C3105       C  0.11654400  0.96874407  0.79029431    -0.12400
C3106       C  0.13285822  0.96872603  0.79956726    -0.26500
C3107       C  0.14866311  0.96241326  0.78998430     0.36200
C3108       C  0.14808993  0.95663921  0.77156220    -0.28100
F3109       F  0.10011578  0.96693178  0.76327319    -0.20200
H3110       H  0.10419148  0.97406713  0.79725468     0.15500
F3111       F  0.16470028  0.96180403  0.79839715    -0.23900
H3112       H  0.16044407  0.95124216  0.76463782     0.17300
C3113       C  0.87233764  0.81588585  0.97999046    -0.28000
C3114       C  0.88483171  0.83159522  0.99126501     0.05600
C3115       C  0.89709088  0.85431916  0.98367277     0.25200
C3116       C  0.89669902  0.86136726  0.96542813    -0.12500
C3117       C  0.88392144  0.84649779  0.95414354    -0.26400
C3118       C  0.87181688  0.82325818  0.96164447     0.36100
C3119       C  0.88465247  0.82610915  0.01099154     0.05600
F3120       F  0.90895156  0.87119715  0.99402770    -0.20200
H3121       H  0.90618518  0.87948437  0.96025899     0.15500
F3122       F  0.85949215  0.80758638  0.95133002    -0.23900
H3123       H  0.86289357  0.79795686  0.98540283     0.17300
C3124       C  0.86871605  0.82863097  0.02090027     0.25300
C3125       C  0.86924358  0.82992479  0.03959599    -0.12400
C3126       C  0.88563585  0.82945616  0.04873570    -0.26500
C3127       C  0.90139462  0.82433893  0.03891808     0.36200
C3128       C  0.90082874  0.82216298  0.02029835    -0.28100
F3129       F  0.85278453  0.83274548  0.01256315    -0.20200
H3130       H  0.85690673  0.83387799  0.04683807     0.15500
F3131       F  0.91744473  0.82270540  0.04726801    -0.23900
H3132       H  0.91323257  0.81904704  0.01306490     0.17300
C3133       C  0.98239656  0.97157450  0.86254742    -0.28000
C3134       C  0.99239385  0.97094726  0.87833875     0.05600
C3135       C  0.98380730  0.96372323  0.89458202     0.25200
C3136       C  0.96563069  0.95633443  0.89486045    -0.12500
C3137       C  0.95560585  0.95638204  0.87902591    -0.26400
C3138       C  0.96418250  0.96436894  0.86280621     0.36100
C3139       C  0.01177950  0.97746875  0.87780598     0.05600
F3140       F  0.99306088  0.96291210  0.91014676    -0.20200
H3141       H  0.95941678  0.95044012  0.90753452     0.15500
F3142       F  0.95520597  0.96432921  0.84709133    -0.23900
H3143       H  0.98873519  0.97759915  0.84995203     0.17300
C3144       C  0.02295162  0.96006582  0.86587795     0.25300
C3145       C  0.04139968  0.96534927  0.86621117    -0.12400
C3146       C  0.04898374  0.98799093  0.87846666    -0.26500
C3147       C  0.03759648  0.00611036  0.88999122     0.36200
C3148       C  0.01924371  0.00084485  0.88958581    -0.28100
F3149       F  0.01609881  0.93715730  0.85433130    -0.20200
H3150       H  0.04975273  0.95123057  0.85710300     0.15500
F3151       F  0.04407368  0.02914563  0.90167458    -0.23900
H3152       H  0.01080250  0.01510060  0.89855954     0.17300
C3153       C  0.86984379  0.31599924  0.97887231    -0.28000
C3154       C  0.88429324  0.32656024  0.98951418     0.05600
C3155       C  0.89838585  0.34405727  0.98133001     0.25200
C3156       C  0.89784639  0.35132540  0.96315455    -0.12500
C3157       C  0.88316362  0.34190798  0.95249495    -0.26400
C3158       C  0.86919415  0.32367707  0.96057248     0.36100
C3159       C  0.88415817  0.32200327  0.00926146     0.05600
F3160       F  0.91232627  0.35590178  0.99104502    -0.20200
H3161       H  0.90891773  0.36533031  0.95756716     0.15500
F3162       F  0.85474638  0.31388870  0.95099710    -0.23900
H3163       H  0.85888519  0.30218040  0.98479544     0.17300
C3164       C  0.86902455  0.33092829  0.01932839     0.25300
C3165       C  0.86989759  0.33191095  0.03793380    -0.12400
C3166       C  0.88594149  0.32496397  0.04689995    -0.26500
C3167       C  0.90082951  0.31439696  0.03700015     0.36200
C3168       C  0.89981147  0.31236860  0.01836890    -0.28100
F3169       F  0.85381910  0.34146878  0.01122399    -0.20200
H3170       H  0.85831845  0.34057194  0.04527713     0.15500
F3171       F  0.91644438  0.30689915  0.04528443    -0.23900
H3172       H  0.91153415  0.30460799  0.01098777     0.17300
C3173       C  0.89028989  0.61642504  0.86448972    -0.28000
C3174       C  0.88405791  0.63296127  0.87986021     0.05600
C3175       C  0.87881147  0.61374028  0.89467837     0.25200
C3176       C  0.87945028  0.57867426  0.89395179    -0.12500
C3177       C  0.88524720  0.56199633  0.87843507    -0.26400
C3178       C  0.89101507  0.58126165  0.86377407     0.36100
C3179       C  0.88318100  0.67019581  0.88034283     0.05600
F3180       F  0.87320171  0.62884569  0.90991781    -0.20200
H3181       H  0.87521966  0.56449092  0.90555798     0.15500
F3182       F  0.89667241  0.56624738  0.84852864    -0.23900
H3183       H  0.89429660  0.63081220  0.85287766     0.17300
C3184       C  0.89814093  0.68944878  0.87560845     0.25300
C3185       C  0.89710610  0.72448735  0.87531837    -0.12400
C3186       C  0.88119665  0.74122181  0.87993722    -0.26500
C3187       C  0.86633334  0.72192738  0.88520645     0.36200
C3188       C  0.86734064  0.68671464  0.88530441    -0.28100
F3189       F  0.91388008  0.67434663  0.87154441    -0.20200
H3190       H  0.90888770  0.73856875  0.87151912     0.15500
F3191       F  0.85069593  0.73691622  0.88973128    -0.23900
H3192       H  0.85562378  0.67228759  0.88893484     0.17300
C3193       C  0.88865915  0.18771536  0.86318329    -0.28000
C3194       C  0.87439679  0.17040783  0.87100900     0.05600
C3195       C  0.86092953  0.18893348  0.87973612     0.25200
C3196       C  0.86175102  0.22414494  0.88036552    -0.12500
C3197       C  0.87608400  0.24151740  0.87248423    -0.26400
C3198       C  0.88962990  0.22268874  0.86396200     0.36100
C3199       C  0.87458640  0.13307129  0.87119738     0.05600
F3200       F  0.84696145  0.17303766  0.88762444    -0.20200
H3201       H  0.85117978  0.23776501  0.88707192     0.15500
F3202       F  0.90421960  0.23777291  0.85678845    -0.23900
H3203       H  0.89947789  0.17400789  0.85693262     0.17300
C3204       C  0.87842867  0.11430372  0.85569934     0.25300
C3205       C  0.87981315  0.07916339  0.85656244    -0.12400
C3206       C  0.87704533  0.06216755  0.87277965    -0.26500
C3207       C  0.87317587  0.08106006  0.88819676     0.36200
C3208       C  0.87210441  0.11603121  0.88737902    -0.28100
F3209       F  0.88048720  0.12984652  0.83968602    -0.20200
H3210       H  0.88261777  0.06519819  0.84447697     0.15500
F3211       F  0.87080483  0.06583338  0.90424043    -0.23900
H3212       H  0.86967065  0.12990335  0.89956850     0.17300
C3213       C  0.02823817  0.44815455  0.86799914    -0.28000
C3214       C  0.01706012  0.46001019  0.88162006     0.05600
C3215       C  0.02461037  0.47774100  0.89595601     0.25200
C3216       C  0.04295023  0.48406608  0.89643566    -0.12500
C3217       C  0.05427037  0.47266093  0.88271360    -0.26400
C3218       C  0.04664988  0.45415708  0.86852320     0.36100
C3219       C  0.99758456  0.45355514  0.88104525     0.05600
F3220       F  0.01415586  0.48974642  0.90930886    -0.20200
H3221       H  0.04822896  0.49834678  0.90753906     0.15500
F3222       F  0.05686107  0.44169451  0.85512542    -0.23900
H3223       H  0.02270177  0.43390903  0.85699880     0.17300
C3224       C  0.98724214  0.46294164  0.86619502     0.25300
C3225       C  0.96874133  0.45795782  0.86628475    -0.12400
C3226       C  0.96023480  0.44313503  0.88108161    -0.26500
C3227       C  0.97079026  0.43308918  0.89577501     0.36200
C3228       C  0.98918557  0.43844433  0.89570518    -0.28100
F3229       F  0.99495555  0.47769505  0.85179049    -0.20200
H3230       H  0.96110135  0.46569662  0.85472330     0.15500
F3231       F  0.96347512  0.41800665  0.91030191    -0.23900
H3232       H  0.99695817  0.43057394  0.90716034     0.17300
C3233       C  0.86840932  0.61092051  0.51806832    -0.28000
C3234       C  0.87951643  0.59217981  0.50663728     0.05600
C3235       C  0.89032702  0.56687164  0.51407097     0.25200
C3236       C  0.89039795  0.56113814  0.53244427    -0.12500
C3237       C  0.87952621  0.58002427  0.54406195    -0.26400
C3238       C  0.86835227  0.60494693  0.53659508     0.36100
C3239       C  0.88002125  0.59859594  0.48701924     0.05600
F3240       F  0.90055733  0.54693113  0.50349379    -0.20200
H3241       H  0.89891986  0.54131573  0.53753349     0.15500
F3242       F  0.85765264  0.62400195  0.54713177    -0.23900
H3243       H  0.85996722  0.63057849  0.51267563     0.17300
C3244       C  0.86433078  0.59913477  0.47668901     0.25300
C3245       C  0.86533451  0.60024159  0.45800991    -0.12400
C3246       C  0.88196219  0.60016825  0.44927304    -0.26500
C3247       C  0.89758599  0.60211578  0.45964764     0.36200
C3248       C  0.89656166  0.60153330  0.47827870    -0.28100
F3249       F  0.84809454  0.59583294  0.48451679    -0.20200
H3250       H  0.85308798  0.59858686  0.45038394     0.15500
F3251       F  0.91391506  0.60321949  0.45180577    -0.23900
H3252       H  0.90882152  0.60204923  0.48592773     0.17300
C3253       C  0.98803248  0.49597031  0.60907673    -0.28000
C3254       C  0.99478198  0.46989564  0.61976213     0.05600
C3255       C  0.98284052  0.45001865  0.62971359     0.25200
C3256       C  0.96448941  0.45606593  0.62877751    -0.12500
C3257       C  0.95771999  0.48195209  0.61790927    -0.26400
C3258       C  0.96971681  0.50195134  0.60807326     0.36100
C3259       C  0.01423078  0.46330510  0.62013137     0.05600
F3260       F  0.98885477  0.42431221  0.64003534    -0.20200
H3261       H  0.95555311  0.44034020  0.63650538     0.15500
F3262       F  0.96385629  0.52805663  0.59794867    -0.23900
H3263       H  0.99701808  0.51202631  0.60160387     0.17300
C3264       C  0.02388493  0.46022418  0.60412785     0.25300
C3265       C  0.04214064  0.45332668  0.60448776    -0.12400
C3266       C  0.05113758  0.44915176  0.62077602    -0.26500
C3267       C  0.04150889  0.45262176  0.63682481     0.36200
C3268       C  0.02323825  0.45974391  0.63644715    -0.28100
F3269       F  0.01552654  0.46252839  0.58810684    -0.20200
H3270       H  0.04920858  0.45073255  0.59195437     0.15500
F3271       F  0.04952138  0.44774042  0.65286094    -0.23900
H3272       H  0.01608038  0.46226763  0.64893166     0.17300
C3273       C  0.86479351  0.46749035  0.73105460    -0.28000
C3274       C  0.88081434  0.47263674  0.74047401     0.05600
C3275       C  0.89639235  0.48017532  0.73062694     0.25200
C3276       C  0.89570856  0.48310320  0.71198638    -0.12500
C3277       C  0.87946786  0.47951638  0.70281361    -0.26400
C3278       C  0.86402326  0.47150573  0.71254630     0.36100
C3279       C  0.88102717  0.46990477  0.76040406     0.05600
F3280       F  0.91213205  0.48624600  0.73898469    -0.20200
H3281       H  0.90774597  0.48978054  0.70479648     0.15500
F3282       F  0.84812533  0.46747563  0.70413872    -0.23900
H3283       H  0.85271902  0.46034358  0.73801544     0.17300
C3284       C  0.86668597  0.48214945  0.77079515     0.25300
C3285       C  0.86633415  0.47703055  0.78926996    -0.12400
C3286       C  0.88051584  0.46087784  0.79793464    -0.26500
C3287       C  0.89519158  0.44985955  0.78779923     0.36200
C3288       C  0.89528696  0.45388699  0.76923016    -0.28100
F3289       F  0.85297671  0.49925317  0.76318119    -0.20200
H3290       H  0.85491389  0.48567245  0.79685896     0.15500
F3291       F  0.90892474  0.43324827  0.79569422    -0.23900
H3292       H  0.90628735  0.44333907  0.76173134     0.17300
C3293       C  0.86517594  0.10634117  0.48102935    -0.28000
C3294       C  0.88100052  0.10290799  0.49086662     0.05600
C3295       C  0.89738900  0.10181825  0.48173162     0.25200
C3296       C  0.89776506  0.10090265  0.46313593    -0.12500
C3297       C  0.88183850  0.10121623  0.45322001    -0.26400
C3298       C  0.86552929  0.10559730  0.46235536     0.36100
C3299       C  0.88030781  0.09536263  0.51022847     0.05600
F3300       F  0.91302253  0.09979156  0.49083260    -0.20200
H3301       H  0.91055021  0.09822446  0.45653613     0.15500
F3302       F  0.84978266  0.10635065  0.45343303    -0.23900
H3303       H  0.85240676  0.10714742  0.48778976     0.17300
C3304       C  0.87048209  0.11512162  0.52231799     0.25300
C3305       C  0.87021401  0.10680666  0.54052404    -0.12400
C3306       C  0.87970137  0.07869255  0.54690809    -0.26500
C3307       C  0.88895435  0.05834657  0.53456721     0.36200
C3308       C  0.88919468  0.06667884  0.51653510    -0.28100
F3309       F  0.86154904  0.14283983  0.51662972    -0.20200
H3310       H  0.86290968  0.12277238  0.54967248     0.15500
F3311       F  0.89761928  0.02997692  0.53978141    -0.23900
H3312       H  0.89626997  0.05034759  0.50737348     0.17300
C3313       C  0.88204554  0.81536005  0.64013894    -0.28000
C3314       C  0.87657414  0.79892387  0.62445522     0.05600
C3315       C  0.87151300  0.81811846  0.60958952     0.25200
C3316       C  0.87181820  0.85308157  0.61043583    -0.12500
C3317       C  0.87749712  0.86968754  0.62598584    -0.26400
C3318       C  0.88265632  0.85052006  0.64089874     0.36100
C3319       C  0.87689266  0.76184019  0.62329000     0.05600
F3320       F  0.86697551  0.80307100  0.59398595    -0.20200
H3321       H  0.86797042  0.86722194  0.59868248     0.15500
F3322       F  0.88796119  0.86564518  0.65623870    -0.23900
H3323       H  0.88588490  0.80090723  0.65178450     0.17300
C3324       C  0.89242744  0.74405979  0.62774726     0.25300
C3325       C  0.89289296  0.70917677  0.62613292    -0.12400
C3326       C  0.87781442  0.69114701  0.62029189    -0.26500
C3327       C  0.86226871  0.70901625  0.61566475     0.36200
C3328       C  0.86187745  0.74410625  0.61713783    -0.28100
F3329       F  0.90726907  0.76045600  0.63342686    -0.20200
H3330       H  0.90511558  0.69621181  0.62965902     0.15500
F3331       F  0.84727305  0.69265241  0.61040020    -0.23900
H3332       H  0.84973179  0.75745548  0.61375131     0.17300
C3333       C  0.87425314  0.31632591  0.61320624    -0.28000
C3334       C  0.87975671  0.29924678  0.62860917     0.05600
C3335       C  0.88651983  0.31796831  0.64307554     0.25200
C3336       C  0.88739681  0.35316596  0.64211844    -0.12500
C3337       C  0.88142655  0.37025948  0.62682086    -0.26400
C3338       C  0.87499501  0.35130857  0.61226683     0.36100
C3339       C  0.87909538  0.26191537  0.62891213     0.05600
F3340       F  0.89180983  0.30237028  0.65830160    -0.20200
H3341       H  0.89230424  0.36707860  0.65352602     0.15500
F3342       F  0.86955456  0.36643831  0.59695376    -0.23900
H3343       H  0.86951894  0.30245141  0.60171121     0.17300
C3344       C  0.86377553  0.24436881  0.62321681     0.25300
C3345       C  0.86395911  0.20918416  0.62191770    -0.12400
C3346       C  0.87927719  0.19080723  0.62663238    -0.26500
C3347       C  0.89446496  0.20852555  0.63266358     0.36200
C3348       C  0.89433377  0.24359107  0.63367865    -0.28100
F3349       F  0.84853871  0.26124570  0.61918756    -0.20200
H3350       H  0.85200082  0.19629053  0.61755351     0.15500
F3351       F  0.90968714  0.19211143  0.63723557    -0.23900
H3352       H  0.90637342  0.25651502  0.63779003     0.17300
C3353       C  0.02014381  0.93357308  0.60868405    -0.28000
C3354       C  0.01311008  0.95682806  0.62082352     0.05600
C3355       C  0.02456178  0.97244758  0.63313294     0.25200
C3356       C  0.04280598  0.96501120  0.63315442    -0.12500
C3357       C  0.04995034  0.94167749  0.62099199    -0.26400
C3358       C  0.03831990  0.92592210  0.60872628     0.36100
C3359       C  0.99378247  0.96430386  0.62069478     0.05600
F3360       F  0.01813550  0.99528265  0.64495953    -0.20200
H3361       H  0.05133314  0.97759509  0.64271202     0.15500
F3362       F  0.04431946  0.90256502  0.59695373    -0.23900
H3363       H  0.01145567  0.92089288  0.59929676     0.17300
C3364       C  0.98524854  0.97490722  0.60498164     0.25300
C3365       C  0.96700078  0.98211723  0.60507465    -0.12400
C3366       C  0.95682602  0.97844572  0.62075955    -0.26500
C3367       C  0.96543172  0.96727206  0.63642409     0.36200
C3368       C  0.98372756  0.96047011  0.63633774    -0.28100
F3369       F  0.99462901  0.97895235  0.58962606    -0.20200
H3370       H  0.96084007  0.99054758  0.59278585     0.15500
F3371       F  0.95633107  0.96330142  0.65193066    -0.23900
H3372       H  0.99006503  0.95190326  0.64851333     0.17300
C3373       C  0.85977817  0.97164762  0.77009637    -0.28000
C3374       C  0.87477712  0.96091244  0.76029851     0.05600
C3375       C  0.88967666  0.94833529  0.76964689     0.25200
C3376       C  0.88939544  0.94621052  0.78823686    -0.12500
C3377       C  0.87412330  0.95548982  0.79787059    -0.26400
C3378       C  0.85933149  0.96854584  0.78869875     0.36100
C3379       C  0.87494710  0.96344839  0.74047024     0.05600
F3380       F  0.90421558  0.93655879  0.76082820    -0.20200
H3381       H  0.90083677  0.93561346  0.79507608     0.15500
F3382       F  0.84454672  0.97851233  0.79773140    -0.23900
H3383       H  0.84835478  0.98245033  0.76335037     0.17300
C3384       C  0.85992366  0.95438955  0.73019763     0.25300
C3385       C  0.85998998  0.95895716  0.71167606    -0.12400
C3386       C  0.87507839  0.97203811  0.70304058    -0.26500
C3387       C  0.89027411  0.98004964  0.71316255     0.36200
C3388       C  0.89011915  0.97603877  0.73167127    -0.28100
F3389       F  0.84513479  0.94127891  0.73801693    -0.20200
H3390       H  0.84816072  0.95266626  0.70407260     0.15500
F3391       F  0.90484639  0.99398623  0.70531906    -0.23900
H3392       H  0.90169653  0.98403619  0.73919225     0.17300
C3393       C  0.39658041  0.83883903  0.51918069    -0.28000
C3394       C  0.38270406  0.85847444  0.51209070     0.05600
C3395       C  0.36938873  0.87041263  0.52378146     0.25200
C3396       C  0.36993224  0.86224991  0.54202321    -0.12500
C3397       C  0.38360048  0.84169068  0.54899434    -0.26400
C3398       C  0.39706122  0.83039359  0.53725094     0.36100
C3399       C  0.38168619  0.86324317  0.49233187     0.05600
F3400       F  0.35577636  0.88971973  0.51760570    -0.20200
H3401       H  0.35940314  0.87151588  0.55061439     0.15500
F3402       F  0.41042340  0.80994285  0.54292106    -0.23900
H3403       H  0.40676147  0.82851860  0.51051010     0.17300
C3404       C  0.39714890  0.87054870  0.48233124     0.25300
C3405       C  0.39704149  0.86774678  0.46371150    -0.12400
C3406       C  0.38145524  0.85845543  0.45453874    -0.26500
C3407       C  0.36564090  0.85363780  0.46439768     0.36200
C3408       C  0.36582596  0.85582791  0.48309274    -0.28100
F3409       F  0.41259723  0.87917021  0.49061018    -0.20200
H3410       H  0.40936450  0.87180420  0.45646065     0.15500
F3411       F  0.35036656  0.84393442  0.45614831    -0.23900
H3412       H  0.35379851  0.84954857  0.49038185     0.17300
C3413       C  0.23474140  0.82307155  0.62033896    -0.28000
C3414       C  0.24438933  0.83866584  0.63409984     0.05600
C3415       C  0.23509025  0.85405892  0.64813010     0.25200
C3416       C  0.21652527  0.85422307  0.64828305    -0.12500
C3417       C  0.20666241  0.83954016  0.63431462    -0.26400
C3418       C  0.21602435  0.82339017  0.62040194     0.36100
C3419       C  0.26412567  0.83892865  0.63396623     0.05600
F3420       F  0.24396953  0.87029349  0.66135912    -0.20200
H3421       H  0.20991847  0.86725382  0.65911277     0.15500
F3422       F  0.20722053  0.80852996  0.60669855    -0.23900
H3423       H  0.24173100  0.81077523  0.60950049     0.17300
C3424       C  0.27361435  0.82755704  0.64892268     0.25300
C3425       C  0.29216127  0.82824677  0.64900077    -0.12400
C3426       C  0.30183509  0.83957617  0.63402787    -0.26500
C3427       C  0.29229217  0.85204140  0.61921004     0.36200
C3428       C  0.27357755  0.85141322  0.61918208    -0.28100
F3429       F  0.26496007  0.81441553  0.66324356    -0.20200
H3430       H  0.29891712  0.81840058  0.66066393     0.15500
F3431       F  0.30092045  0.86417905  0.60464631    -0.23900
H3432       H  0.26643418  0.86076037  0.60763161     0.17300
C3433       C  0.37339045  0.37032402  0.52539918    -0.28000
C3434       C  0.38283213  0.34862185  0.51395046     0.05600
C3435       C  0.39147053  0.32039294  0.52124617     0.25200
C3436       C  0.39083166  0.31424566  0.53955367    -0.12500
C3437       C  0.38152637  0.33592379  0.55111087    -0.26400
C3438       C  0.37274819  0.36409845  0.54386673     0.36100
C3439       C  0.38354834  0.35454838  0.49437685     0.05600
F3440       F  0.40024105  0.29824775  0.51058897    -0.20200
H3441       H  0.39756203  0.29214122  0.54470595     0.15500
F3442       F  0.36412921  0.38615362  0.55465780    -0.23900
H3443       H  0.36673543  0.39232829  0.52005262     0.17300
C3444       C  0.36784572  0.35659627  0.48417615     0.25300
C3445       C  0.36871770  0.35617251  0.46548933    -0.12400
C3446       C  0.38523454  0.35330665  0.45664270    -0.26500
C3447       C  0.40098888  0.35371606  0.46692456     0.36200
C3448       C  0.40008870  0.35445174  0.48555659    -0.28100
F3449       F  0.35162599  0.35624018  0.49223941    -0.20200
H3450       H  0.35636309  0.35576073  0.45799603     0.15500
F3451       F  0.41728143  0.35198136  0.45904842    -0.23900
H3452       H  0.41236571  0.35344139  0.49317180     0.17300
C3453       C  0.38268258  0.57093626  0.64517530    -0.28000
C3454       C  0.37887088  0.55296137  0.62945313     0.05600
C3455       C  0.37571408  0.57097996  0.61361334     0.25200
C3456       C  0.37583173  0.60610172  0.61364915    -0.12500
C3457       C  0.37948280  0.62408004  0.62935426    -0.26400
C3458       C  0.38316655  0.60618380  0.64512767     0.36100
C3459       C  0.37832796  0.51555073  0.62952421     0.05600
F3460       F  0.37297171  0.55463145  0.59796473    -0.20200
H3461       H  0.37330348  0.61931437  0.60125212     0.15500
F3462       F  0.38665874  0.62270174  0.66058635    -0.23900
H3463       H  0.38505203  0.55766782  0.65757886     0.17300
C3464       C  0.39218791  0.49682788  0.63730739     0.25300
C3465       C  0.39175373  0.46170222  0.63697270    -0.12400
C3466       C  0.37749881  0.44421824  0.62891173    -0.26500
C3467       C  0.36361339  0.46300461  0.62109994     0.36200
C3468       C  0.36403829  0.49827226  0.62149367    -0.28100
F3469       F  0.40642487  0.51244352  0.64484670    -0.20200
H3470       H  0.40277235  0.44817292  0.64298617     0.15500
F3471       F  0.34946522  0.44745497  0.61339014    -0.23900
H3472       H  0.35306732  0.51216114  0.61562811     0.17300
C3473       C  0.36694707  0.99900278  0.61852992    -0.28000
C3474       C  0.38121783  0.01545556  0.62699060     0.05600
C3475       C  0.39459283  0.99637423  0.63522870     0.25200
C3476       C  0.39397896  0.96143226  0.63457274    -0.12500
C3477       C  0.37990600  0.94459135  0.62585674    -0.26400
C3478       C  0.36617314  0.96381884  0.61804565     0.36100
C3479       C  0.38235011  0.05249764  0.62696195     0.05600
F3480       F  0.40856756  0.01153930  0.64347953    -0.20200
H3481       H  0.40472786  0.94761327  0.64087704     0.15500
F3482       F  0.35196977  0.94883923  0.61010771    -0.23900
H3483       H  0.35635262  0.01348640  0.61237453     0.17300
C3484       C  0.38200040  0.07041678  0.61082537     0.25300
C3485       C  0.38267710  0.10552347  0.61092709    -0.12400
C3486       C  0.38405327  0.12323288  0.62709961    -0.26500
C3487       C  0.38522886  0.10514818  0.64319260     0.36200
C3488       C  0.38421154  0.07005969  0.64309095    -0.28100
F3489       F  0.38127680  0.05389539  0.59499266    -0.20200
H3490       H  0.38207270  0.11892683  0.59834609     0.15500
F3491       F  0.38653079  0.12136936  0.65906525    -0.23900
H3492       H  0.38458579  0.05655964  0.65565041     0.17300
C3493       C  0.27060675  0.34256560  0.62343000    -0.28000
C3494       C  0.26119635  0.32265048  0.63580105     0.05600
C3495       C  0.27079009  0.30231945  0.64769273     0.25200
C3496       C  0.28939444  0.30256241  0.64748104    -0.12500
C3497       C  0.29899821  0.32286233  0.63531971    -0.26400
C3498       C  0.28933012  0.34268238  0.62312188     0.36100
C3499       C  0.24141720  0.32315519  0.63615362     0.05600
F3500       F  0.26218506  0.28141517  0.65917702    -0.20200
H3501       H  0.29626173  0.28612489  0.65674601     0.15500
F3502       F  0.29787039  0.36229793  0.61100878    -0.23900
H3503       H  0.26340753  0.35833307  0.61408375     0.17300
C3504       C  0.23202466  0.32982684  0.65202160     0.25300
C3505       C  0.21346463  0.33323044  0.65173669    -0.12400
C3506       C  0.20385976  0.32973709  0.63570706    -0.26500
C3507       C  0.21323290  0.32094741  0.62007803     0.36200
C3508       C  0.23181599  0.31803947  0.62033792    -0.28100
F3509       F  0.24081686  0.33482280  0.66763138    -0.20200
H3510       H  0.20667396  0.33979636  0.66401166     0.15500
F3511       F  0.20466620  0.31693943  0.60429027    -0.23900
H3512       H  0.23879398  0.31233882  0.60804769     0.17300
C3513       C  0.39984780  0.57446927  0.98180370    -0.28000
C3514       C  0.38401722  0.57561923  0.99187140     0.05600
C3515       C  0.36766509  0.57915508  0.98271298     0.25200
C3516       C  0.36743373  0.58375966  0.96411594    -0.12500
C3517       C  0.38345559  0.58539155  0.95435823    -0.26400
C3518       C  0.39964407  0.57962031  0.96337118     0.36100
C3519       C  0.38519534  0.57840973  0.01174218     0.05600
F3520       F  0.35201459  0.58080962  0.99177543    -0.20200
H3521       H  0.35477484  0.58803878  0.95751383     0.15500
F3522       F  0.41541447  0.57989506  0.95444521    -0.23900
H3523       H  0.41259723  0.57111932  0.98838083     0.17300
C3524       C  0.37365799  0.56114944  0.02347766     0.25300
C3525       C  0.37437484  0.56722594  0.04196846    -0.12400
C3526       C  0.38669188  0.59033015  0.04916555    -0.26500
C3527       C  0.39868854  0.60638256  0.03736582     0.36200
C3528       C  0.39784859  0.60049426  0.01905384    -0.28100
F3529       F  0.36178142  0.53831167  0.01716608    -0.20200
H3530       H  0.36512728  0.55410423  0.05063087     0.15500
F3531       F  0.41085166  0.62909628  0.04326751    -0.23900
H3532       H  0.40681534  0.61442806  0.01044533     0.17300
C3533       C  0.23595025  0.58093211  0.85524969    -0.28000
C3534       C  0.24507612  0.58845211  0.87109281     0.05600
C3535       C  0.23515454  0.59761569  0.88627583     0.25200
C3536       C  0.21645641  0.59787276  0.88570186    -0.12500
C3537       C  0.20731613  0.58881146  0.87002902    -0.26400
C3538       C  0.21737368  0.58122784  0.85461269     0.36100
C3539       C  0.26490834  0.58838532  0.87104127     0.05600
F3540       F  0.24348682  0.60640710  0.90164251    -0.20200
H3541       H  0.20916040  0.60382681  0.89776739     0.15500
F3542       F  0.20935863  0.57282498  0.83898474    -0.23900
H3543       H  0.24327134  0.57411081  0.84332190     0.17300
C3544       C  0.27506467  0.57162576  0.88415179     0.25300
C3545       C  0.29381596  0.57214465  0.88340380    -0.12400
C3546       C  0.30274797  0.58930692  0.86958325    -0.26500
C3547       C  0.29235585  0.60563858  0.85640537     0.36200
C3548       C  0.27381008  0.60502699  0.85719587    -0.28100
F3549       F  0.26691569  0.55454170  0.89755963    -0.20200
H3550       H  0.30133203  0.55954941  0.89378980     0.15500
F3551       F  0.29994362  0.62367575  0.84302775    -0.23900
H3552       H  0.26632014  0.61839950  0.84705333     0.17300
C3553       C  0.36187158  0.69024940  0.76905490    -0.28000
C3554       C  0.37366988  0.71395711  0.76188044     0.05600
C3555       C  0.38537270  0.73113125  0.77341534     0.25200
C3556       C  0.38577438  0.72333949  0.79168471    -0.12500
C3557       C  0.37424303  0.69884313  0.79882356    -0.26400
C3558       C  0.36200900  0.68281368  0.78721768     0.36100
C3559       C  0.37368166  0.71977792  0.74231322     0.05600
F3560       F  0.39618973  0.75578588  0.76707901    -0.20200
H3561       H  0.39512006  0.73646073  0.80022094     0.15500
F3562       F  0.35036467  0.65915314  0.79317218    -0.23900
H3563       H  0.35270943  0.67679694  0.76045092     0.17300
C3564       C  0.38948788  0.71713769  0.73229607     0.25300
C3565       C  0.38912817  0.72106249  0.71373551    -0.12400
C3566       C  0.37305255  0.72807802  0.70480092    -0.26500
C3567       C  0.35715285  0.73003604  0.71486245     0.36200
C3568       C  0.35752825  0.72578475  0.73337119    -0.28100
F3569       F  0.40525500  0.71023650  0.74041441    -0.20200
H3570       H  0.40156878  0.71960144  0.70641870     0.15500
F3571       F  0.34121175  0.73627408  0.70689538    -0.23900
H3572       H  0.34515560  0.72753671  0.74079828     0.17300
C3573       C  0.36838431  0.09608184  0.98569818    -0.28000
C3574       C  0.38321054  0.08154658  0.99424801     0.05600
C3575       C  0.39750448  0.06988247  0.98372225     0.25200
C3576       C  0.39731515  0.07428977  0.96518505    -0.12500
C3577       C  0.38277543  0.08982070  0.95671585    -0.26400
C3578       C  0.36814550  0.10027339  0.96711151     0.36100
C3579       C  0.38436246  0.08151016  0.01409662     0.05600
F3580       F  0.41180786  0.05470202  0.99139945    -0.20200
H3581       H  0.40868092  0.06596190  0.95741876     0.15500
F3582       F  0.35420192  0.11666399  0.95946952    -0.23900
H3583       H  0.35733646  0.10566985  0.99351204     0.17300
C3584       C  0.39922816  0.09576814  0.02264837     0.25300
C3585       C  0.39978035  0.09831495  0.04120830    -0.12400
C3586       C  0.38537826  0.08747975  0.05186654    -0.26500
C3587       C  0.37061579  0.07242602  0.04331272     0.36200
C3588       C  0.37017173  0.06954391  0.02462796    -0.28100
F3589       F  0.41278074  0.10936580  0.01301851    -0.20200
H3590       H  0.41130104  0.11034931  0.04714387     0.15500
F3591       F  0.35631719  0.06160970  0.05282730    -0.23900
H3592       H  0.35854863  0.05855485  0.01832680     0.17300
C3593       C  0.39794305  0.92763516  0.87629720    -0.28000
C3594       C  0.38176187  0.91005802  0.87773458     0.05600
C3595       C  0.36588921  0.92831609  0.88060185     0.25200
C3596       C  0.36627098  0.96337744  0.88186191    -0.12500
C3597       C  0.38236194  0.98096916  0.87986223    -0.26400
C3598       C  0.39827906  0.96273372  0.87716921     0.36100
C3599       C  0.38157254  0.87276058  0.87670535     0.05600
F3600       F  0.34988842  0.91241017  0.88151221    -0.20200
H3601       H  0.35384355  0.97687321  0.88370995     0.15500
F3602       F  0.41420286  0.97875216  0.87550334    -0.23900
H3603       H  0.41038612  0.91415153  0.87455564     0.17300
C3604       C  0.39098013  0.85532399  0.86331139     0.25300
C3605       C  0.39082661  0.82006370  0.86285555    -0.12400
C3606       C  0.38113371  0.80155548  0.87559861    -0.26500
C3607       C  0.37170473  0.81927472  0.88894827     0.36200
C3608       C  0.37206401  0.85430193  0.88948209    -0.28100
F3609       F  0.39996564  0.87234433  0.85041904    -0.20200
H3610       H  0.39813636  0.80729150  0.85239404     0.15500
F3611       F  0.36231014  0.80294966  0.90180227    -0.23900
H3612       H  0.36504249  0.86705295  0.90014844     0.17300
C3613       C  0.37431941  0.35528955  0.89184425    -0.28000
C3614       C  0.38029235  0.37218736  0.87654542     0.05600
C3615       C  0.38648219  0.35332976  0.86190295     0.25200
C3616       C  0.38652447  0.31820317  0.86262383    -0.12500
C3617       C  0.38035615  0.30128093  0.87788422    -0.26400
C3618       C  0.37418523  0.32026686  0.89252651     0.36100
C3619       C  0.38035718  0.40940594  0.87622123     0.05600
F3620       F  0.39220427  0.36877705  0.84678621    -0.20200
H3621       H  0.39120746  0.30423348  0.85113637     0.15500
F3622       F  0.36838825  0.30516703  0.90771869    -0.23900
H3623       H  0.36995259  0.36928038  0.90344713     0.17300
C3624       C  0.36540003  0.42790670  0.88197154     0.25300
C3625       C  0.36587075  0.46304395  0.88213549    -0.12400
C3626       C  0.38119887  0.48037357  0.87649593    -0.26500
C3627       C  0.39617007  0.46172177  0.87075094     0.36200
C3628       C  0.39570405  0.42666478  0.87070841    -0.28100
F3629       F  0.35022062  0.41204232  0.88717520    -0.20200
H3630       H  0.35413975  0.47668817  0.88649495     0.15500
F3631       F  0.41147747  0.47718063  0.86556150    -0.23900
H3632       H  0.40752522  0.41294907  0.86666385     0.17300
C3633       C  0.27360101  0.09212656  0.85830950    -0.28000
C3634       C  0.26517339  0.08150969  0.87402149     0.05600
C3635       C  0.27564998  0.07334527  0.88896442     0.25200
C3636       C  0.29425350  0.07705936  0.88828143    -0.12500
C3637       C  0.30270810  0.08862702  0.87263142    -0.26400
C3638       C  0.29209002  0.09548755  0.85750636     0.36100
C3639       C  0.24551735  0.07788841  0.87411948     0.05600
F3640       F  0.26795111  0.06118391  0.90404637    -0.20200
H3641       H  0.30199055  0.07140828  0.90011238     0.15500
F3642       F  0.29946004  0.10568743  0.84186393    -0.23900
H3643       H  0.26576454  0.09811863  0.84657875     0.17300
C3644       C  0.23473072  0.09459660  0.88666464     0.25300
C3645       C  0.21609931  0.09229220  0.88559081    -0.12400
C3646       C  0.20793716  0.07311906  0.87208487    -0.26500
C3647       C  0.21892291  0.05616030  0.85967727     0.36200
C3648       C  0.23741221  0.05879694  0.86069723    -0.28100
F3649       F  0.24215556  0.11370567  0.89968834    -0.20200
H3650       H  0.20808507  0.10534071  0.89542143     0.15500
F3651       F  0.21197222  0.03612565  0.84676639    -0.23900
H3652       H  0.24550739  0.04555873  0.85099157     0.17300
C3653       C  0.36192828  0.19849930  0.73263193    -0.28000
C3654       C  0.37581681  0.21172155  0.74321008     0.05600
C3655       C  0.38948682  0.23013808  0.73475064     0.25200
C3656       C  0.38925911  0.23500433  0.71629631    -0.12500
C3657       C  0.37520027  0.22257473  0.70589249    -0.26400
C3658       C  0.36139700  0.20446723  0.71418869     0.36100
C3659       C  0.37588663  0.20691544  0.76298440     0.05600
F3660       F  0.40268402  0.24483148  0.74437667    -0.20200
H3661       H  0.39974680  0.24984266  0.71018492     0.15500
F3662       F  0.34748710  0.19249882  0.70447762    -0.23900
H3663       H  0.35139026  0.18371744  0.73866043     0.17300
C3664       C  0.36021716  0.21112843  0.77314532     0.25300
C3665       C  0.36047317  0.20626779  0.79166664    -0.12400
C3666       C  0.37638450  0.19787612  0.80055787    -0.26500
C3667       C  0.39211178  0.19424546  0.79047840     0.36200
C3668       C  0.39178436  0.19838915  0.77191888    -0.28100
F3669       F  0.34468924  0.22052053  0.76525228    -0.20200
H3670       H  0.34817192  0.20909966  0.79911156     0.15500
F3671       F  0.40762576  0.18491345  0.79841557    -0.23900
H3672       H  0.40397118  0.19422798  0.76447359     0.17300
C3673       C  0.61503565  0.60188210  0.52216708    -0.28000
C3674       C  0.62910320  0.58338218  0.51468581     0.05600
C3675       C  0.64250855  0.57075663  0.52603355     0.25200
C3676       C  0.64164475  0.57645426  0.54450495    -0.12500
C3677       C  0.62736926  0.59467098  0.55200325    -0.26400
C3678       C  0.61398727  0.60718863  0.54049321     0.36100
C3679       C  0.62958928  0.57861095  0.49499961     0.05600
F3680       F  0.65624914  0.55245235  0.51933766    -0.20200
H3681       H  0.65214359  0.56652101  0.55292782     0.15500
F3682       F  0.59990518  0.62516851  0.54675294    -0.23900
H3683       H  0.60480557  0.61271680  0.51371563     0.17300
C3684       C  0.61396059  0.56972452  0.48568839     0.25300
C3685       C  0.61335888  0.57173985  0.46708083    -0.12400
C3686       C  0.62842646  0.58178929  0.45732396    -0.26500
C3687       C  0.64453240  0.58777042  0.46650466     0.36200
C3688       C  0.64502135  0.58650118  0.48519404    -0.28100
F3689       F  0.59903799  0.56023623  0.49465539    -0.20200
H3690       H  0.60090227  0.56649456  0.46030055     0.15500
F3691       F  0.65939828  0.59762679  0.45756196    -0.23900
H3692       H  0.65718748  0.59363476  0.49200667     0.17300
C3693       C  0.73699484  0.61438221  0.64914238    -0.28000
C3694       C  0.74537628  0.59725100  0.63513598     0.05600
C3695       C  0.73480780  0.58096227  0.62226014     0.25200
C3696       C  0.71616460  0.58238366  0.62330535    -0.12500
C3697       C  0.70771405  0.60012894  0.63717185    -0.26400
C3698       C  0.71844818  0.61591963  0.65022373     0.36100
C3699       C  0.76511759  0.59531369  0.63467114     0.05600
F3700       F  0.74248762  0.56327578  0.60881652    -0.20200
H3701       H  0.70836471  0.57002678  0.61306637     0.15500
F3702       F  0.71118177  0.63387498  0.66381196    -0.23900
H3703       H  0.74488650  0.62710298  0.65919363     0.17300
C3704       C  0.77484230  0.60358076  0.61923552     0.25300
C3705       C  0.79342366  0.59982122  0.61893133    -0.12400
C3706       C  0.80267929  0.58812725  0.63406744    -0.26500
C3707       C  0.79288145  0.58157065  0.64980447     0.36200
C3708       C  0.77435937  0.58505414  0.64999498    -0.28100
F3709       F  0.76640305  0.61547801  0.60449946    -0.20200
H3710       H  0.80049298  0.60530638  0.60666699     0.15500
F3711       F  0.80103165  0.57102269  0.66499021    -0.23900
H3712       H  0.76713747  0.57890294  0.66209247     0.17300
C3713       C  0.52214322  0.71515822  0.63819793    -0.28000
C3714       C  0.51190320  0.70145534  0.62434822     0.05600
C3715       C  0.52025263  0.68263075  0.61096315     0.25200
C3716       C  0.53862142  0.67742266  0.61148341    -0.12500
C3717       C  0.54911325  0.69111395  0.62528929    -0.26400
C3718       C  0.54062666  0.71033843  0.63866066     0.36100
C3719       C  0.49266223  0.70851136  0.62335699     0.05600
F3720       F  0.51058767  0.66898377  0.59747163    -0.20200
H3721       H  0.54458679  0.66246185  0.60098953     0.15500
F3722       F  0.55005362  0.72486877  0.65204127    -0.23900
H3723       H  0.51582733  0.73021270  0.64845966     0.17300
C3724       C  0.48105771  0.69782092  0.63688712     0.25300
C3725       C  0.46301245  0.70663923  0.63626220    -0.12400
C3726       C  0.45623840  0.72607311  0.62204608    -0.26500
C3727       C  0.46796781  0.73580554  0.60821942     0.36200
C3728       C  0.48596742  0.72700801  0.60894042    -0.28100
F3729       F  0.48717022  0.67856302  0.65055827    -0.20200
H3730       H  0.45438996  0.69836744  0.64699790     0.15500
F3731       F  0.46226349  0.75441366  0.59413490    -0.23900
H3732       H  0.49482877  0.73530618  0.59838965     0.17300
C3733       C  0.60789573  0.09704454  0.48806536    -0.28000
C3734       C  0.62137085  0.07764679  0.49599297     0.05600
C3735       C  0.63392091  0.06156454  0.48489879     0.25200
C3736       C  0.63351214  0.06659952  0.46634642    -0.12500
C3737       C  0.62047374  0.08743521  0.45847403    -0.26400
C3738       C  0.60736577  0.10193115  0.46964710     0.36100
C3739       C  0.62272718  0.07697499  0.51581539     0.05600
F3740       F  0.64663096  0.04119596  0.49198183    -0.20200
H3741       H  0.64363704  0.05469350  0.45819645     0.15500
F3742       F  0.59437954  0.12222232  0.46301946    -0.23900
H3743       H  0.59810979  0.10983377  0.49626320     0.17300
C3744       C  0.63881804  0.08533063  0.52445002     0.25300
C3745       C  0.63923736  0.09007926  0.54295718    -0.12400
C3746       C  0.62356260  0.08760827  0.55316071    -0.26500
C3747       C  0.60757549  0.07824455  0.54461349     0.36200
C3748       C  0.60726377  0.07263432  0.52619818    -0.28100
F3749       F  0.65382391  0.09166656  0.51488385    -0.20200
H3750       H  0.65164438  0.09775578  0.54914909     0.15500
F3751       F  0.59211655  0.07537248  0.55395263    -0.23900
H3752       H  0.59471040  0.06620421  0.51989873     0.17300
C3753       C  0.60950989  0.93263788  0.62999271    -0.28000
C3754       C  0.62519107  0.91406083  0.62752353     0.05600
C3755       C  0.64136266  0.93111247  0.62436556     0.25200
C3756       C  0.64182305  0.96628554  0.62430722    -0.12500
C3757       C  0.62620471  0.98488963  0.62743470    -0.26400
C3758       C  0.60994815  0.96769362  0.62992925     0.36100
C3759       C  0.62451954  0.87694863  0.62793301     0.05600
F3760       F  0.65678726  0.91377917  0.62188793    -0.20200
H3761       H  0.65446805  0.97895553  0.62231579     0.15500
F3762       F  0.59438895  0.98474309  0.63203201    -0.23900
H3763       H  0.59685580  0.91993217  0.63186609     0.17300
C3764       C  0.61653279  0.85956092  0.64223526     0.25300
C3765       C  0.61659569  0.82435730  0.64259133    -0.12400
C3766       C  0.62439339  0.80606516  0.62858123    -0.26500
C3767       C  0.63169791  0.82374906  0.61394484     0.36200
C3768       C  0.63182458  0.85872803  0.61375742    -0.28100
F3769       F  0.60906292  0.87658917  0.65603896    -0.20200
H3770       H  0.61078013  0.81147485  0.65393114     0.15500
F3771       F  0.63854488  0.80739843  0.59959188    -0.23900
H3772       H  0.63751793  0.87168658  0.60237568     0.17300
C3773       C  0.64713115  0.43219300  0.62772537    -0.28000
C3774       C  0.63094051  0.41485821  0.63042523     0.05600
C3775       C  0.61515648  0.43354193  0.63254288     0.25200
C3776       C  0.61564437  0.46859533  0.63240609    -0.12500
C3777       C  0.63175788  0.48593304  0.62972319    -0.26400
C3778       C  0.64753505  0.46744640  0.62711900     0.36100
C3779       C  0.63041745  0.37744939  0.63063570     0.05600
F3780       F  0.59912514  0.41796049  0.63420581    -0.20200
H3781       H  0.60325868  0.48229464  0.63413533     0.15500
F3782       F  0.66335672  0.48336790  0.62452579    -0.23900
H3783       H  0.65951536  0.41842815  0.62622393     0.17300
C3784       C  0.63930634  0.35878873  0.61745286     0.25300
C3785       C  0.63855443  0.32370168  0.61756044    -0.12400
C3786       C  0.62874513  0.30617557  0.63065793    -0.26500
C3787       C  0.61951463  0.32493044  0.64367213     0.36200
C3788       C  0.62055009  0.36013121  0.64373097    -0.28100
F3789       F  0.64828437  0.37445544  0.60408200    -0.20200
H3790       H  0.64559545  0.31027495  0.60714807     0.15500
F3791       F  0.60955095  0.30947138  0.65639261    -0.23900
H3792       H  0.61364889  0.37390078  0.65411202     0.17300
C3793       C  0.73458735  0.07996524  0.62000070    -0.28000
C3794       C  0.74465002  0.09466271  0.63373344     0.05600
C3795       C  0.73582215  0.11047327  0.64791426     0.25200
C3796       C  0.71726920  0.11101801  0.64853640    -0.12500
C3797       C  0.70696779  0.09645569  0.63483893    -0.26400
C3798       C  0.71588635  0.08081810  0.62047904     0.36100
C3799       C  0.76432292  0.09246304  0.63371850     0.05600
F3800       F  0.74517888  0.12623285  0.66097612    -0.20200
H3801       H  0.71101385  0.12386478  0.65963220     0.15500
F3802       F  0.70666711  0.06669480  0.60682786    -0.23900
H3803       H  0.74123946  0.06758501  0.60897846     0.17300
C3804       C  0.77320894  0.07817314  0.64834715     0.25300
C3805       C  0.79173026  0.07575899  0.64841505    -0.12400
C3806       C  0.80189310  0.08717904  0.63381366    -0.26500
C3807       C  0.79294948  0.10210857  0.61923973     0.36200
C3808       C  0.77430190  0.10457480  0.61923171    -0.28100
F3809       F  0.76390851  0.06530503  0.66232614    -0.20200
H3810       H  0.79802988  0.06378349  0.65977095     0.15500
F3811       F  0.80206340  0.11355033  0.60481282    -0.23900
H3812       H  0.76762040  0.11585540  0.60788995     0.17300
C3813       C  0.52474886  0.22680083  0.63892305    -0.28000
C3814       C  0.51356911  0.21349378  0.62568041     0.05600
C3815       C  0.52084334  0.19192122  0.61274882     0.25200
C3816       C  0.53903404  0.18464093  0.61282599    -0.12500
C3817       C  0.55033560  0.19788899  0.62607947    -0.26400
C3818       C  0.54287580  0.21872459  0.63935131     0.36100
C3819       C  0.49434807  0.22191137  0.62543798     0.05600
F3820       F  0.51027394  0.17695167  0.60036797    -0.20200
H3821       H  0.54416953  0.16799588  0.60260860     0.15500
F3822       F  0.55293248  0.23131338  0.65281375    -0.23900
H3823       H  0.51945455  0.24363777  0.64896853     0.17300
C3824       C  0.48402789  0.22003499  0.64107296     0.25300
C3825       C  0.46577423  0.22664628  0.64047149    -0.12400
C3826       C  0.45752403  0.23611564  0.62440520    -0.26500
C3827       C  0.46797067  0.23888668  0.60883205     0.36200
C3828       C  0.48617022  0.23166454  0.60939715    -0.28100
F3829       F  0.49149352  0.21137592  0.65691950    -0.20200
H3830       H  0.45815109  0.22481231  0.65271317     0.15500
F3831       F  0.46068477  0.24843145  0.59302556    -0.23900
H3832       H  0.49395090  0.23403670  0.59727858     0.17300
C3833       C  0.61603161  0.82833095  0.98789064    -0.28000
C3834       C  0.62802442  0.85175880  0.99502031     0.05600
C3835       C  0.63942335  0.86931816  0.98330416     0.25200
C3836       C  0.63873724  0.86316534  0.96481658    -0.12500
C3837       C  0.62667160  0.83946945  0.95771999    -0.26400
C3838       C  0.61523732  0.82228973  0.96963406     0.36100
C3839       C  0.62883013  0.85551477  0.01477093     0.05600
F3840       F  0.65103680  0.89258801  0.98967196    -0.20200
H3841       H  0.64765190  0.87691465  0.95607974     0.15500
F3842       F  0.60348978  0.79871421  0.96387143    -0.23900
H3843       H  0.60742927  0.81382202  0.99660721     0.17300
C3844       C  0.61295313  0.85809590  0.02472875     0.25300
C3845       C  0.61312004  0.85342064  0.04320002    -0.12400
C3846       C  0.62913235  0.84676295  0.05228365    -0.26500
C3847       C  0.64524650  0.84697515  0.04253557     0.36200
C3848       C  0.64503393  0.85115657  0.02392951    -0.28100
F3849       F  0.59710107  0.86363632  0.01645700    -0.20200
H3850       H  0.60055969  0.85392875  0.05035603     0.15500
F3851       F  0.66103855  0.84047379  0.05070742    -0.23900
H3852       H  0.65741270  0.84876002  0.01657584     0.17300
C3853       C  0.77230323  0.83611152  0.88437223    -0.28000
C3854       C  0.76266877  0.85033315  0.87009308     0.05600
C3855       C  0.77217892  0.86439213  0.85576369     0.25200
C3856       C  0.79072662  0.86322421  0.85545430    -0.12500
C3857       C  0.80052451  0.84946050  0.86976806    -0.26400
C3858       C  0.79104378  0.83583601  0.88432001     0.36100
C3859       C  0.74280106  0.85006995  0.87000228     0.05600
F3860       F  0.76362676  0.88073011  0.84233597    -0.20200
H3861       H  0.79739556  0.87468258  0.84416090     0.15500
F3862       F  0.79976214  0.82287531  0.89862759    -0.23900
H3863       H  0.76530404  0.82513814  0.89560166     0.17300
C3864       C  0.73333988  0.84077712  0.85455299     0.25300
C3865       C  0.71473549  0.83975555  0.85464435    -0.12400
C3866       C  0.70500254  0.84674310  0.87027617    -0.26500
C3867       C  0.71445150  0.85646944  0.88569313     0.36200
C3868       C  0.73312886  0.85827011  0.88547160    -0.28100
F3869       F  0.74204830  0.83054147  0.83962533    -0.20200
H3870       H  0.70799614  0.83178542  0.84258458     0.15500
F3871       F  0.70580650  0.86256258  0.90125938    -0.23900
H3872       H  0.74006929  0.86554316  0.89753744     0.17300
C3873       C  0.52536838  0.70396956  0.87212027    -0.28000
C3874       C  0.51340584  0.72426248  0.88173324     0.05600
C3875       C  0.52012813  0.75110280  0.89191010     0.25200
C3876       C  0.53845997  0.75701274  0.89271264    -0.12500
C3877       C  0.55050371  0.73654177  0.88327151    -0.26400
C3878       C  0.54374113  0.71002750  0.87279937     0.36100
C3879       C  0.49406175  0.71648874  0.88176911     0.05600
F3880       F  0.50894550  0.77197480  0.90088659    -0.20200
H3881       H  0.54320302  0.77804766  0.90057329     0.15500
F3882       F  0.55483653  0.68941921  0.86355946    -0.23900
H3883       H  0.52051012  0.68287266  0.86438310     0.17300
C3884       C  0.48474035  0.71077781  0.86577484     0.25300
C3885       C  0.46655759  0.70305294  0.86616371    -0.12400
C3886       C  0.45741021  0.70008874  0.88247142    -0.26500
C3887       C  0.46676466  0.70565982  0.89847095     0.36200
C3888       C  0.48487163  0.71397143  0.89805707    -0.28100
F3889       F  0.49315550  0.71274902  0.84976635    -0.20200
H3890       H  0.45972438  0.69849080  0.85366443     0.15500
F3891       F  0.45845475  0.70317321  0.91451327    -0.23900
H3892       H  0.49184513  0.71774062  0.91055205     0.17300
C3893       C  0.61861635  0.74178746  0.77203455    -0.28000
C3894       C  0.63107057  0.71987535  0.76417659     0.05600
C3895       C  0.64356387  0.70344478  0.77526326     0.25200
C3896       C  0.64389286  0.70982469  0.79366914    -0.12500
C3897       C  0.63148049  0.73188320  0.80136228    -0.26400
C3898       C  0.61872974  0.74757856  0.79043753     0.36100
C3899       C  0.63132788  0.71534332  0.74443402     0.05600
F3900       F  0.65531761  0.68096905  0.76833970    -0.20200
H3901       H  0.65380296  0.69751720  0.80193131     0.15500
F3902       F  0.60691237  0.76980236  0.79748351    -0.23900
H3903       H  0.60907182  0.75522207  0.76384179     0.17300
C3904       C  0.61546643  0.70973139  0.73480036     0.25300
C3905       C  0.61590258  0.70596952  0.71624772    -0.12400
C3906       C  0.63215697  0.70694908  0.70690299    -0.26500
C3907       C  0.64800812  0.71292912  0.71649128     0.36200
C3908       C  0.64752202  0.71734215  0.73500930    -0.28100
F3909       F  0.59961243  0.70633866  0.74337386    -0.20200
H3910       H  0.60354471  0.70073407  0.70928600     0.15500
F3911       F  0.66400146  0.71446593  0.70800627    -0.23900
H3912       H  0.65987364  0.72238252  0.74201103     0.17300
C3913       C  0.64189348  0.34108474  0.98579615    -0.28000
C3914       C  0.62694549  0.35568093  0.99413243     0.05600
C3915       C  0.61286881  0.36759486  0.98334306     0.25200
C3916       C  0.61318825  0.36250764  0.96487939    -0.12500
C3917       C  0.62778772  0.34661359  0.95675076    -0.26400
C3918       C  0.64237760  0.33673303  0.96728142     0.36100
C3919       C  0.62558627  0.35546361  0.01399599     0.05600
F3920       F  0.59868769  0.38379380  0.99062893    -0.20200
H3921       H  0.60190628  0.37061806  0.95691944     0.15500
F3922       F  0.65650587  0.32059054  0.95982917    -0.23900
H3923       H  0.65286338  0.33147068  0.99370734     0.17300
C3924       C  0.61002242  0.34372596  0.02248483     0.25300
C3925       C  0.60953501  0.33958978  0.04099045    -0.12400
C3926       C  0.62462489  0.34621554  0.05160377    -0.26500
C3927       C  0.64003624  0.35913137  0.04317770     0.36200
C3928       C  0.64043119  0.36370858  0.02461382    -0.28100
F3929       F  0.59565537  0.33368362  0.01284250    -0.20200
H3930       H  0.59746564  0.32954289  0.04689476     0.15500
F3931       F  0.65504672  0.36586607  0.05263846    -0.23900
H3932       H  0.65258577  0.37281136  0.01844918     0.17300
C3933       C  0.64609760  0.50390930  0.88926888    -0.28000
C3934       C  0.63895414  0.52088572  0.87444503     0.05600
C3935       C  0.63270491  0.50210649  0.85989218     0.25200
C3936       C  0.63221204  0.46706997  0.86080080    -0.12500
C3937       C  0.63822744  0.44992125  0.87611025    -0.26400
C3938       C  0.64584514  0.46870240  0.89011155     0.36100
C3939       C  0.63730783  0.55802069  0.87454313     0.05600
F3940       F  0.62694036  0.51769453  0.84482868    -0.20200
H3941       H  0.62684367  0.45336694  0.84953060     0.15500
F3942       F  0.65234097  0.45330733  0.90492376    -0.23900
H3943       H  0.65125814  0.51798049  0.90050955     0.17300
C3944       C  0.62079563  0.57361340  0.87101998     0.25300
C3945       C  0.61924794  0.60868854  0.87142611    -0.12400
C3946       C  0.63403879  0.62879031  0.87568290    -0.26500
C3947       C  0.65058102  0.61306079  0.87916744     0.36200
C3948       C  0.65212665  0.57805456  0.87862059    -0.28100
F3949       F  0.60599543  0.55484747  0.86786600    -0.20200
H3950       H  0.60635301  0.62007046  0.86890895     0.15500
F3951       F  0.66538249  0.63148043  0.88285759    -0.23900
H3952       H  0.66495931  0.56654024  0.88130019     0.17300
C3953       C  0.63093450  0.07565806  0.89328237    -0.28000
C3954       C  0.62711817  0.05847664  0.87741470     0.05600
C3955       C  0.62228673  0.07716874  0.86217178     0.25200
C3956       C  0.62157365  0.11241159  0.86284962    -0.12500
C3957       C  0.62579729  0.12962545  0.87866402    -0.26400
C3958       C  0.63029608  0.11074243  0.89396751     0.36100
C3959       C  0.62745204  0.02110120  0.87723922     0.05600
F3960       F  0.61873960  0.06143018  0.84650536    -0.20200
H3961       H  0.61818890  0.12627241  0.85086670     0.15500
F3962       F  0.63380306  0.12609402  0.90975149    -0.23900
H3963       H  0.63419213  0.06179766  0.90530297     0.17300
C3964       C  0.64208201  0.00303036  0.88414965     0.25300
C3965       C  0.64169810  0.96781197  0.88486295    -0.12400
C3966       C  0.62677319  0.94986116  0.87866264    -0.26500
C3967       C  0.61214119  0.96813669  0.87173701     0.36200
C3968       C  0.61256801  0.00326298  0.87103961    -0.28100
F3969       F  0.65686944  0.01939737  0.88997542    -0.20200
H3970       H  0.65320774  0.95458056  0.89009053     0.15500
F3971       F  0.59717274  0.95227467  0.86597341    -0.23900
H3972       H  0.60100980  0.01663891  0.86601932     0.17300
C3973       C  0.73612358  0.33171544  0.85551991    -0.28000
C3974       C  0.74538439  0.34555900  0.86993189     0.05600
C3975       C  0.73577076  0.35797569  0.88464369     0.25200
C3976       C  0.71713298  0.35525664  0.88509119    -0.12500
C3977       C  0.70782745  0.34054904  0.87077048    -0.26400
C3978       C  0.71762750  0.32940170  0.85577552     0.36100
C3979       C  0.76503015  0.34754214  0.86901082     0.05600
F3980       F  0.74435456  0.37317289  0.89839598    -0.20200
H3981       H  0.71003728  0.36426964  0.89673495     0.15500
F3982       F  0.70952169  0.31548041  0.84136990    -0.23900
H3983       H  0.74330507  0.32221260  0.84402885     0.17300
C3984       C  0.77581279  0.33419239  0.88259895     0.25300
C3985       C  0.79437207  0.33644157  0.88136414    -0.12400
C3986       C  0.80251575  0.35197595  0.86655655    -0.26500
C3987       C  0.79159740  0.36385360  0.85255581     0.36200
C3988       C  0.77308760  0.36168093  0.85387932    -0.28100
F3989       F  0.76843495  0.31869727  0.89696385    -0.20200
H3990       H  0.80232980  0.32670421  0.89226826     0.15500
F3991       F  0.79863712  0.37839187  0.83774360    -0.23900
H3992       H  0.76496461  0.37164184  0.84314224     0.17300
C3993       C  0.52080339  0.24924370  0.89739902    -0.28000
C3994       C  0.51393293  0.22716664  0.88454394     0.05600
C3995       C  0.52557813  0.21259940  0.87205542     0.25200
C3996       C  0.54377208  0.22006200  0.87244687    -0.12500
C3997       C  0.55076958  0.24216226  0.88530945    -0.26400
C3998       C  0.53902183  0.25660474  0.89790962     0.36100
C3999       C  0.49473721  0.21848599  0.88454221     0.05600
F4000       F  0.51943866  0.19038410  0.85976344    -0.20200
H4001       H  0.55238696  0.20828648  0.86267419     0.15500
F4002       F  0.54499804  0.27786130  0.91075389    -0.23900
H4003       H  0.51200904  0.26082120  0.90708901     0.17300
C4004       C  0.48649700  0.20609690  0.90004204     0.25300
C4005       C  0.46862646  0.19604601  0.89965103    -0.12400
C4006       C  0.45858017  0.19818826  0.88381020    -0.26500
C4007       C  0.46686188  0.21123923  0.86836777     0.36200
C4008       C  0.48472505  0.22129695  0.86881039    -0.28100
F4009       F  0.49592988  0.20248781  0.91539066    -0.20200
H4010       H  0.46270455  0.18629996  0.91178285     0.15500
F4011       F  0.45794822  0.21352769  0.85266713    -0.23900
H4012       H  0.49083218  0.23103080  0.85676081     0.17300
C4013       C  0.61907999  0.20916912  0.77515827    -0.28000
C4014       C  0.63339582  0.22038636  0.76459047     0.05600
C4015       C  0.64769630  0.23702499  0.77283187     0.25200
C4016       C  0.64767249  0.24228075  0.79122267    -0.12500
C4017       C  0.63331930  0.23144052  0.80196254    -0.26400
C4018       C  0.61898342  0.21456373  0.79366603     0.36100
C4019       C  0.63343520  0.21480239  0.74501123     0.05600
F4020       F  0.66146201  0.24931614  0.76300755    -0.20200
H4021       H  0.65884435  0.25575108  0.79695326     0.15500
F4022       F  0.60476650  0.20365847  0.80327412    -0.23900
H4023       H  0.60795425  0.19615614  0.76904379     0.17300
C4024       C  0.64804877  0.19921932  0.73668002     0.25300
C4025       C  0.64801276  0.19378473  0.71830255    -0.12400
C4026       C  0.63345267  0.20376046  0.70766190    -0.26500
C4027       C  0.61895837  0.22020968  0.71598903     0.36200
C4028       C  0.61895475  0.22535286  0.73450151    -0.28100
F4029       F  0.66219723  0.18824388  0.74638442    -0.20200
H4030       H  0.65938182  0.18103339  0.71248406     0.15500
F4031       F  0.60472010  0.23111264  0.70640432    -0.23900
H4032       H  0.60766842  0.23783294  0.74065145     0.17300
loop_ 
_geom_bond_atom_site_label_1 
_geom_bond_atom_site_label_2 
_geom_bond_distance 
_geom_bond_site_symmetry_2 
_ccdc_geom_bond_type 
Zr1           O2   2.441       .  S
Zr1           O3   2.455       .  S
Zr1           O4   2.464       .  S
Zr1           O7   2.436       .  S
Zr1           O9   2.376       .  S
Zr1          O10   2.390       .  S
Zr1          O11   2.409       .  S
Zr1          O12   2.411       .  S
O2           H58   0.990       .  S
O2           H66   0.990       .  S
O3           C23   1.287       .  A
O4           C25   1.288       .  A
O5          Zr15   2.413       .  S
O5           C24   1.281       .  A
O6          Zr14   2.411       .  S
O6           C25   1.281       .  A
O7           C24   1.286       .  A
O8          Zr16   2.409       .  S
O8           C23   1.279       .  A
O9          Zr14   2.391       .  S
O9          Zr16   2.382       .  S
O10         Zr15   2.394       .  S
O10         Zr16   2.378       .  S
O10          H45   0.966       .  S
O11         Zr14   2.390       .  S
O11         Zr31   2.392       .  S
O11          H48   0.965       .  S
O12         Zr15   2.387       .  S
O12         Zr31   2.389       .  S
Zr13         O38   2.441       .  S
Zr13         O32   2.442       .  S
Zr13         O40   2.441       .  S
Zr13         O28   2.454       .  S
Zr13         O19   2.402       .  S
Zr13         O20   2.409       .  S
Zr13         O21   2.380       .  S
Zr13         O22   2.387       .  S
Zr14         O33   2.437       .  S
Zr14         O26   2.435       .  S
Zr14         O27   2.402       .  S
Zr14         O20   2.398       .  S
Zr14         O21   2.386       .  S
Zr15         O17   2.435       .  S
Zr15         O39   2.439       .  S
Zr15         O41   2.418       .  S
Zr15         O19   2.385       .  S
Zr15         O22   2.394       .  S
Zr16         O42   2.438       .  S
Zr16         O43   2.435       .  S
Zr16         O18   2.438       .  S
Zr16         O19   2.388       .  S
Zr16         O20   2.382       .  S
O17          H54   0.990       .  S
O18          H49   0.990       .  S
O18          H63   0.990       .  S
O20          H46   0.965       .  S
O21         Zr31   2.377       .  S
O22         Zr31   2.378       .  S
O22          H47   0.966       .  S
C23        C3957   1.485       .  S
C24        C3997   1.484       .  S
C25        C4017   1.492       .  S
O26          H62   0.990       .  S
O27          C29   1.279       .  A
O28          C29   1.287       .  A
C29        C3977   1.484       .  S
O30         Zr31   2.438       .  S
O30          H59   0.990       .  S
Zr31         O34   2.436       .  S
Zr31         O35   2.440       .  S
Zr31         O36   2.408       .  S
O32          C37   1.284       .  A
O33          H50   0.990       .  S
O33          H65   0.990       .  S
O34          H51   0.990       .  S
O35          H55   0.990       .  S
O35          H64   0.990       .  S
O36          C37   1.280       .  A
C37        C3937   1.484       .  S
O38          H57   0.990       .  S
O38          H61   0.990       .  S
O39          H53   0.990       .  S
O39          H60   0.990       .  S
O40          C44   1.285       .  A
O41          C44   1.281       .  A
O42          H52   0.990       .  S
O43          H56   0.991       .  S
C44        C3917   1.473       .  S
Zr67         O68   2.442       .  S
Zr67         O69   2.453       .  S
Zr67         O70   2.455       .  S
Zr67         O73   2.438       .  S
Zr67         O75   2.376       .  S
Zr67         O76   2.390       .  S
Zr67         O77   2.411       .  S
Zr67         O78   2.403       .  S
O68         H124   0.990       .  S
O68         H132   0.991       .  S
O69          C89   1.287       .  A
O70          C91   1.286       .  A
O71         Zr81   2.418       .  S
O71          C90   1.283       .  A
O72         Zr80   2.432       .  S
O72          C91   1.283       .  A
O73          C90   1.285       .  A
O74         Zr82   2.397       .  S
O74          C89   1.277       .  A
O75         Zr80   2.391       .  S
O75         Zr82   2.382       .  S
O76         Zr81   2.395       .  S
O76         Zr82   2.381       .  S
O76         H111   0.966       .  S
O77         Zr80   2.395       .  S
O77         Zr97   2.390       .  S
O77         H114   0.964       .  S
O78         Zr81   2.384       .  S
O78         Zr97   2.387       .  S
Zr79        O104   2.439       .  S
Zr79         O98   2.454       .  S
Zr79        O106   2.462       .  S
Zr79         O94   2.466       .  S
Zr79         O85   2.403       .  S
Zr79         O86   2.415       .  S
Zr79         O87   2.383       .  S
Zr79         O88   2.390       .  S
Zr80         O99   2.435       .  S
Zr80         O92   2.435       .  S
Zr80         O93   2.411       .  S
Zr80         O86   2.405       .  S
Zr80         O87   2.397       .  S
Zr81         O83   2.435       .  S
Zr81        O105   2.437       .  S
Zr81        O107   2.414       .  S
Zr81         O85   2.385       .  S
Zr81         O88   2.393       .  S
Zr82        O108   2.435       .  S
Zr82        O109   2.437       .  S
Zr82         O84   2.438       .  S
Zr82         O85   2.384       .  S
Zr82         O86   2.379       .  S
O83         H120   0.990       .  S
O84         H115   0.990       .  S
O84         H129   0.990       .  S
O86         H112   0.964       .  S
O87         Zr97   2.379       .  S
O88         Zr97   2.380       .  S
O88         H113   0.966       .  S
C89        C3946   1.481       .  S
C90        C3877   1.481       .  S
C91        C3897   1.474       .  S
O92         H128   0.990       .  S
O93          C95   1.282       .  A
O94          C95   1.290       .  A
C95        C3866   1.488       .  S
O96         Zr97   2.438       .  S
O96         H125   0.991       .  S
Zr97        O100   2.436       .  S
Zr97        O101   2.441       .  S
Zr97        O102   2.406       .  S
O98         C103   1.288       .  A
O99         H116   0.990       .  S
O99         H131   0.990       .  S
O100        H117   0.990       .  S
O101        H121   0.990       .  S
O101        H130   0.990       .  S
O102        C103   1.279       .  A
C103       C3966   1.488       .  S
O104        H123   0.990       .  S
O104        H127   0.990       .  S
O105        H119   0.990       .  S
O105        H126   0.990       .  S
O106        C110   1.289       .  A
O107        C110   1.282       .  A
O108        H118   0.990       .  S
O109        H122   0.990       .  S
C110       C3837   1.494       .  S
Zr133       O134   2.440       .  S
Zr133       O135   2.451       .  S
Zr133       O136   2.452       .  S
Zr133       O139   2.437       .  S
Zr133       O141   2.380       .  S
Zr133       O142   2.386       .  S
Zr133       O143   2.412       .  S
Zr133       O144   2.404       .  S
O134        H190   0.990       .  S
O134        H198   0.990       .  S
O135        C155   1.286       .  A
O136        C157   1.286       .  A
O137       Zr147   2.411       .  S
O137        C156   1.281       .  A
O138       Zr146   2.426       .  S
O138        C157   1.284       .  A
O139        C156   1.285       .  A
O140       Zr148   2.402       .  S
O140        C155   1.279       .  A
O141       Zr146   2.396       .  S
O141       Zr148   2.388       .  S
O142       Zr147   2.395       .  S
O142       Zr148   2.370       .  S
O142        H177   0.966       .  S
O143       Zr146   2.393       .  S
O143       Zr163   2.386       .  S
O143        H180   0.965       .  S
O144       Zr147   2.387       .  S
O144       Zr163   2.387       .  S
Zr145       O170   2.443       .  S
Zr145       O164   2.450       .  S
Zr145       O172   2.453       .  S
Zr145       O160   2.457       .  S
Zr145       O151   2.409       .  S
Zr145       O152   2.415       .  S
Zr145       O153   2.383       .  S
Zr145       O154   2.386       .  S
Zr146       O165   2.436       .  S
Zr146       O158   2.434       .  S
Zr146       O159   2.415       .  S
Zr146       O152   2.399       .  S
Zr146       O153   2.391       .  S
Zr147       O149   2.435       .  S
Zr147       O171   2.437       .  S
Zr147       O173   2.419       .  S
Zr147       O151   2.394       .  S
Zr147       O154   2.386       .  S
Zr148       O174   2.434       .  S
Zr148       O175   2.435       .  S
Zr148       O150   2.438       .  S
Zr148       O151   2.394       .  S
Zr148       O152   2.379       .  S
O149        H186   0.990       .  S
O150        H181   0.990       .  S
O150        H195   0.990       .  S
O152        H178   0.964       .  S
O153       Zr163   2.382       .  S
O154       Zr163   2.377       .  S
O154        H179   0.966       .  S
C155       C3786   1.489       .  S
C156       C3817   1.484       .  S
C157       C4026   1.491       .  S
O158        H194   0.990       .  S
O159        C161   1.283       .  A
O160        C161   1.289       .  A
C161       C3797   1.487       .  S
O162       Zr163   2.437       .  S
O162        H191   0.990       .  S
Zr163       O166   2.439       .  S
Zr163       O167   2.439       .  S
Zr163       O168   2.401       .  S
O164        C169   1.285       .  A
O165        H182   0.990       .  S
O165        H197   0.990       .  S
O166        H183   0.990       .  S
O167        H187   0.990       .  S
O167        H196   0.990       .  S
O168        C169   1.278       .  A
C169       C3757   1.476   1_545  S
O170        H189   0.991       .  S
O170        H193   0.990       .  S
O171        H185   0.990       .  S
O171        H192   0.990       .  S
O172        C176   1.287       .  A
O173        C176   1.282       .  A
O174        H184   0.990       .  S
O175        H188   0.990       .  S
C176       C3746   1.483       .  S
Zr199       O200   2.440       .  S
Zr199       O201   2.444       .  S
Zr199       O202   2.450       .  S
Zr199       O205   2.444       .  S
Zr199       O207   2.382       .  S
Zr199       O208   2.385       .  S
Zr199       O209   2.409       .  S
Zr199       O210   2.400       .  S
O200        H256   0.990       .  S
O200        H264   0.990       .  S
O201        C221   1.285       .  A
O202        C223   1.286       .  A
O203       Zr213   2.409       .  S
O203        C222   1.282       .  A
O204       Zr212   2.423       .  S
O204        C223   1.282       .  A
O205        C222   1.286       .  A
O206       Zr214   2.386       .  S
O206        C221   1.275       .  A
O207       Zr212   2.390       .  S
O207       Zr214   2.382       .  S
O208       Zr213   2.386       .  S
O208       Zr214   2.376       .  S
O208        H243   0.966       .  S
O209       Zr212   2.394       .  S
O209       Zr229   2.384       .  S
O209        H246   0.964       .  S
O210       Zr213   2.386       .  S
O210       Zr229   2.388       .  S
Zr211       O236   2.442       .  S
Zr211       O230   2.447       .  S
Zr211       O238   2.458       .  S
Zr211       O226   2.458       .  S
Zr211       O217   2.399       .  S
Zr211       O218   2.413       .  S
Zr211       O219   2.386       .  S
Zr211       O220   2.387       .  S
Zr212       O231   2.434       .  S
Zr212       O224   2.437       .  S
Zr212       O225   2.406       .  S
Zr212       O218   2.403       .  S
Zr212       O219   2.397       .  S
Zr213       O215   2.435       .  S
Zr213       O237   2.439       .  S
Zr213       O239   2.409       .  S
Zr213       O217   2.385       .  S
Zr213       O220   2.390       .  S
Zr214       O240   2.436       .  S
Zr214       O241   2.435       .  S
Zr214       O216   2.438       .  S
Zr214       O217   2.378       .  S
Zr214       O218   2.379       .  S
O215        H252   0.990       .  S
O216        H247   0.990       .  S
O216        H261   0.990       .  S
O218        H244   0.964       .  S
O219       Zr229   2.380       .  S
O220       Zr229   2.377       .  S
O220        H245   0.966       .  S
C221       C3766   1.478       .  S
C222       C3717   1.485       .  S
C223       C3906   1.483       .  S
O224        H260   0.990       .  S
O225        C227   1.280       .  A
O226        C227   1.288       .  A
C227       C3697   1.486       .  S
O228       Zr229   2.437       .  S
O228        H257   0.991       .  S
Zr229       O232   2.438       .  S
Zr229       O233   2.438       .  S
Zr229       O234   2.402       .  S
O230        C235   1.285       .  A
O231        H248   0.990       .  S
O231        H263   0.990       .  S
O232        H249   0.990       .  S
O233        H253   0.990       .  S
O233        H262   0.990       .  S
O234        C235   1.278       .  A
C235       C3777   1.476       .  S
O236        H255   0.991       .  S
O236        H259   0.990       .  S
O237        H251   0.990       .  S
O237        H258   0.990       .  S
O238        C242   1.289       .  A
O239        C242   1.281       .  A
O240        H250   0.990       .  S
O241        H254   0.990       .  S
C242       C3677   1.490       .  S
Zr265       O266   2.441       .  S
Zr265       O267   2.443       .  S
Zr265       O268   2.468       .  S
Zr265       O271   2.443       .  S
Zr265       O273   2.377       .  S
Zr265       O274   2.389       .  S
Zr265       O275   2.409       .  S
Zr265       O276   2.406       .  S
O266        H322   0.990       .  S
O266        H330   0.990       .  S
O267        C287   1.285       .  A
O268        C289   1.290       .  A
O269       Zr279   2.423       .  S
O269        C288   1.284       .  A
O270       Zr278   2.428       .  S
O270        C289   1.283       .  A
O271        C288   1.286       .  A
O272       Zr280   2.393       .  S
O272        C287   1.276       .  A
O273       Zr278   2.391       .  S
O273       Zr280   2.385       .  S
O274       Zr279   2.396       .  S
O274       Zr280   2.377       .  S
O274        H309   0.967       .  S
O275       Zr278   2.397       .  S
O275       Zr295   2.385       .  S
O275        H312   0.964       .  S
O276       Zr279   2.394       .  S
O276       Zr295   2.390       .  S
Zr277       O302   2.442       .  S
Zr277       O296   2.453       .  S
Zr277       O304   2.454       .  S
Zr277       O292   2.462       .  S
Zr277       O283   2.402       .  S
Zr277       O284   2.413       .  S
Zr277       O285   2.383       .  S
Zr277       O286   2.389       .  S
Zr278       O297   2.434       .  S
Zr278       O290   2.436       .  S
Zr278       O291   2.415       .  S
Zr278       O284   2.402       .  S
Zr278       O285   2.397       .  S
Zr279       O281   2.435       .  S
Zr279       O303   2.436       .  S
Zr279       O305   2.437       .  S
Zr279       O283   2.388       .  S
Zr279       O286   2.389       .  S
Zr280       O306   2.436       .  S
Zr280       O307   2.436       .  S
Zr280       O282   2.437       .  S
Zr280       O283   2.382       .  S
Zr280       O284   2.381       .  S
O281        H318   0.990       .  S
O282        H313   0.990       .  S
O282        H327   0.990       .  S
O284        H310   0.965       .  S
O285       Zr295   2.385       .  S
O286       Zr295   2.380       .  S
O286        H311   0.966       .  S
C287       C3617   1.477       .  S
C288       C4006   1.488       .  S
C289       C3666   1.485       .  S
O290        H326   0.990       .  S
O291        C293   1.282       .  A
O292        C293   1.288       .  A
C293       C3637   1.488       .  S
O294       Zr295   2.439       .  S
O294        H323   0.990       .  S
Zr295       O298   2.440       .  S
Zr295       O299   2.438       .  S
Zr295       O300   2.397       .  S
O296        C301   1.287       .  A
O297        H314   0.990       .  S
O297        H329   0.990       .  S
O298        H315   0.990       .  S
O299        H319   0.990       .  S
O299        H328   0.990       .  S
O300        C301   1.277       .  A
C301       C3597   1.476   1_545  S
O302        H321   0.991       .  S
O302        H325   0.990       .  S
O303        H317   0.990       .  S
O303        H324   0.990       .  S
O304        C308   1.288       .  A
O305        C308   1.285       .  A
O306        H316   0.990       .  S
O307        H320   0.990       .  S
C308       C3577   1.481       .  S
Zr331       O332   2.442       .  S
Zr331       O333   2.446       .  S
Zr331       O334   2.468       .  S
Zr331       O337   2.431       .  S
Zr331       O339   2.379       .  S
Zr331       O340   2.392       .  S
Zr331       O341   2.406       .  S
Zr331       O342   2.405       .  S
O332        H388   0.990       .  S
O332        H396   0.990       .  S
O333        C353   1.286       .  A
O334        C355   1.290       .  A
O335       Zr345   2.428       .  S
O335        C354   1.285       .  A
O336       Zr344   2.398       .  S
O336        C355   1.278       .  A
O337        C354   1.285       .  A
O338       Zr346   2.407       .  S
O338        C353   1.279       .  A
O339       Zr344   2.394       .  S
O339       Zr346   2.381       .  S
O340       Zr345   2.393       .  S
O340       Zr346   2.372       .  S
O340        H375   0.967       .  S
O341       Zr344   2.400       .  S
O341       Zr361   2.392       .  S
O341        H378   0.966       .  S
O342       Zr345   2.390       .  S
O342       Zr361   2.382       .  S
Zr343       O368   2.441       .  S
Zr343       O362   2.447       .  S
Zr343       O370   2.448       .  S
Zr343       O358   2.474       .  S
Zr343       O349   2.409       .  S
Zr343       O350   2.408       .  S
Zr343       O351   2.380       .  S
Zr343       O352   2.394       .  S
Zr344       O363   2.436       .  S
Zr344       O356   2.434       .  S
Zr344       O357   2.411       .  S
Zr344       O350   2.392       .  S
Zr344       O351   2.387       .  S
Zr345       O347   2.435       .  S
Zr345       O369   2.438       .  S
Zr345       O371   2.425       .  S
Zr345       O349   2.389       .  S
Zr345       O352   2.393       .  S
Zr346       O372   2.437       .  S
Zr346       O373   2.435       .  S
Zr346       O348   2.437       .  S
Zr346       O349   2.391       .  S
Zr346       O350   2.378       .  S
O347        H384   0.990       .  S
O348        H379   0.990       .  S
O348        H393   0.990       .  S
O350        H376   0.964       .  S
O351       Zr361   2.387       .  S
O352       Zr361   2.380       .  S
O352        H377   0.966       .  S
C353       C3606   1.487       .  S
C354       C3886   1.479       .  S
C355       C3557   1.490       .  S
O356        H392   0.990       .  S
O357        C359   1.281       .  A
O358        C359   1.290       .  A
C359       C3546   1.492       .  S
O360       Zr361   2.440       .  S
O360        H389   0.991       .  S
Zr361       O364   2.436       .  S
Zr361       O365   2.443       .  S
Zr361       O366   2.393       .  S
O362        C367   1.286       .  A
O363        H380   0.990       .  S
O363        H395   0.990       .  S
O364        H381   0.990       .  S
O365        H385   0.990       .  S
O365        H394   0.990       .  S
O366        C367   1.276       .  A
C367       C3626   1.479       .  S
O368        H387   0.991       .  S
O368        H391   0.990       .  S
O369        H383   0.990       .  S
O369        H390   0.990       .  S
O370        C374   1.287       .  A
O371        C374   1.284       .  A
O372        H382   0.990       .  S
O373        H386   0.990       .  S
C374       C3517   1.487       .  S
Zr397       O398   2.442       .  S
Zr397       O399   2.440       .  S
Zr397       O400   2.450       .  S
Zr397       O403   2.429       .  S
Zr397       O405   2.373       .  S
Zr397       O406   2.385       .  S
Zr397       O407   2.410       .  S
Zr397       O408   2.403       .  S
O398        H454   0.990       .  S
O398        H462   0.990       .  S
O399        C419   1.284       .  A
O400        C421   1.286       .  A
O401       Zr411   2.405       .  S
O401        C420   1.280       .  A
O402       Zr410   2.425       .  S
O402        C421   1.282       .  A
O403        C420   1.285       .  A
O404       Zr412   2.406       .  S
O404        C419   1.278       .  A
O405       Zr410   2.394       .  S
O405       Zr412   2.384       .  S
O406       Zr411   2.383       .  S
O406       Zr412   2.372       .  S
O406        H441   0.966       .  S
O407       Zr410   2.390       .  S
O407       Zr427   2.387       .  S
O407        H444   0.965       .  S
O408       Zr411   2.386       .  S
O408       Zr427   2.386       .  S
Zr409       O434   2.440       .  S
Zr409       O428   2.467       .  S
Zr409       O436   2.479       .  S
Zr409       O424   2.485       .  S
Zr409       O415   2.412       .  S
Zr409       O416   2.418       .  S
Zr409       O417   2.390       .  S
Zr409       O418   2.391       .  S
Zr410       O429   2.435       .  S
Zr410       O422   2.433       .  S
Zr410       O423   2.400       .  S
Zr410       O416   2.400       .  S
Zr410       O417   2.396       .  S
Zr411       O413   2.437       .  S
Zr411       O435   2.437       .  S
Zr411       O437   2.401       .  S
Zr411       O415   2.392       .  S
Zr411       O418   2.389       .  S
Zr412       O438   2.436       .  S
Zr412       O439   2.435       .  S
Zr412       O414   2.437       .  S
Zr412       O415   2.395       .  S
Zr412       O416   2.374       .  S
O413        H450   0.990       .  S
O414        H445   0.990       .  S
O414        H459   0.990       .  S
O416        H442   0.963       .  S
O417       Zr427   2.386       .  S
O418       Zr427   2.381       .  S
O418        H443   0.966       .  S
C419       C3486   1.474       .  S
C420       C3826   1.476       .  S
C421       C3657   1.474       .  S
O422        H458   0.990       .  S
O423        C425   1.280       .  A
O424        C425   1.295       .  A
C425       C3497   1.490       .  S
O426       Zr427   2.440       .  S
O426        H455   0.990       .  S
Zr427       O430   2.438       .  S
Zr427       O431   2.440       .  S
Zr427       O432   2.397       .  S
O428        C433   1.289       .  A
O429        H446   0.990       .  S
O429        H461   0.990       .  S
O430        H447   0.990       .  S
O431        H451   0.990       .  S
O431        H460   0.990       .  S
O432        C433   1.278       .  A
C433       C3466   1.489       .  S
O434        H453   0.990       .  S
O434        H457   0.990       .  S
O435        H449   0.990       .  S
O435        H456   0.990       .  S
O436        C440   1.292       .  A
O437        C440   1.279       .  A
O438        H448   0.990       .  S
O439        H452   0.990       .  S
C440       C3437   1.484       .  S
Zr463       O464   2.440       .  S
Zr463       O465   2.436       .  S
Zr463       O466   2.461       .  S
Zr463       O469   2.432       .  S
Zr463       O471   2.378       .  S
Zr463       O472   2.392       .  S
Zr463       O473   2.402       .  S
Zr463       O474   2.400       .  S
O464        H520   0.990       .  S
O464        H528   0.990       .  S
O465        C485   1.284       .  A
O466        C487   1.289       .  A
O467       Zr477   2.421       .  S
O467        C486   1.284       .  A
O468       Zr476   2.408       .  S
O468        C487   1.280       .  A
O469        C486   1.285       .  A
O470       Zr478   2.413       .  S
O470        C485   1.280       .  A
O471       Zr476   2.393       .  S
O471       Zr478   2.384       .  S
O472       Zr477   2.390       .  S
O472       Zr478   2.372       .  S
O472        H507   0.966       .  S
O473       Zr476   2.392       .  S
O473       Zr493   2.386       .  S
O473        H510   0.966       .  S
O474       Zr477   2.388       .  S
O474       Zr493   2.379       .  S
Zr475       O500   2.442       .  S
Zr475       O494   2.449       .  S
Zr475       O502   2.448       .  S
Zr475       O490   2.461       .  S
Zr475       O481   2.408       .  S
Zr475       O482   2.414       .  S
Zr475       O483   2.381       .  S
Zr475       O484   2.389       .  S
Zr476       O495   2.436       .  S
Zr476       O488   2.434       .  S
Zr476       O489   2.400       .  S
Zr476       O482   2.401       .  S
Zr476       O483   2.387       .  S
Zr477       O479   2.435       .  S
Zr477       O501   2.436       .  S
Zr477       O503   2.424       .  S
Zr477       O481   2.387       .  S
Zr477       O484   2.390       .  S
Zr478       O504   2.436       .  S
Zr478       O505   2.435       .  S
Zr478       O480   2.435       .  S
Zr478       O481   2.388       .  S
Zr478       O482   2.387       .  S
O479        H516   0.990       .  S
O480        H511   0.990       .  S
O480        H525   0.990       .  S
O482        H508   0.965       .  S
O483       Zr493   2.381       .  S
O484       Zr493   2.379       .  S
O484        H509   0.966       .  S
C485       C3457   1.478       .  S
C486       C3726   1.485       .  S
C487       C3566   1.485       .  S
O488        H524   0.990       .  S
O489        C491   1.280       .  A
O490        C491   1.288       .  A
C491       C3426   1.486       .  S
O492       Zr493   2.438       .  S
O492        H521   0.990       .  S
Zr493       O496   2.439       .  S
Zr493       O497   2.439       .  S
Zr493       O498   2.388       .  S
O494        C499   1.286       .  A
O495        H512   0.990       .  S
O495        H527   0.990       .  S
O496        H513   0.990       .  S
O497        H517   0.990       .  S
O497        H526   0.990       .  S
O498        C499   1.277       .  A
C499       C3477   1.482       .  S
O500        H519   0.991       .  S
O500        H523   0.990       .  S
O501        H515   0.990       .  S
O501        H522   0.990       .  S
O502        C506   1.287       .  A
O503        C506   1.284       .  A
O504        H514   0.990       .  S
O505        H518   0.990       .  S
C506       C3397   1.495       .  S
Zr529       O530   2.443       .  S
Zr529       O531   2.444       .  S
Zr529       O532   2.444       .  S
Zr529       O535   2.447       .  S
Zr529       O537   2.380       .  S
Zr529       O538   2.385       .  S
Zr529       O539   2.412   1_565  S
Zr529       O540   2.397   1_565  S
O530        H586   0.990       .  S
O530        H594   0.991       .  S
O531        C551   1.284       .  A
O532        C553   1.285       .  A
O533       Zr543   2.418       .  S
O533        C552   1.283   1_545  A
O534       Zr542   2.430   1_565  S
O534        C553   1.283       .  A
O535        C552   1.287       .  A
O536       Zr544   2.391       .  S
O536        C551   1.276       .  A
O537       Zr542   2.391   1_565  S
O537       Zr544   2.379       .  S
O538       Zr543   2.393   1_565  S
O538       Zr544   2.380       .  S
O538        H573   0.966       .  S
O539       Zr542   2.395       .  S
O539       Zr559   2.385       .  S
O539        H576   0.965       .  S
O540       Zr543   2.386       .  S
O540       Zr559   2.386       .  S
Zr541       O566   2.441       .  S
Zr541       O560   2.459       .  S
Zr541       O568   2.460       .  S
Zr541       O556   2.449       .  S
Zr541       O547   2.400       .  S
Zr541       O548   2.419       .  S
Zr541       O549   2.383       .  S
Zr541       O550   2.382       .  S
Zr542       O561   2.436       .  S
Zr542       O554   2.435   1_545  S
Zr542       O555   2.412       .  S
Zr542       O548   2.401       .  S
Zr542       O549   2.395       .  S
Zr543       O545   2.435       .  S
Zr543       O567   2.439   1_545  S
Zr543       O569   2.406       .  S
Zr543       O547   2.387       .  S
Zr543       O550   2.394       .  S
Zr544       O570   2.434       .  S
Zr544       O571   2.437       .  S
Zr544       O546   2.439       .  S
Zr544       O547   2.386   1_565  S
Zr544       O548   2.379   1_565  S
O545        H582   0.990       .  S
O546        H577   0.990       .  S
O546        H591   0.990       .  S
O548        H574   0.964       .  S
O549       Zr559   2.378       .  S
O550       Zr559   2.381       .  S
O550        H575   0.966       .  S
C551       C3317   1.474       .  S
C552       C3366   1.486       .  S
C553       C3386   1.474       .  S
O554        H590   0.990       .  S
O555        C557   1.283       .  A
O556        C557   1.286       .  A
C557       C3806   1.484       .  S
O558       Zr559   2.437       .  S
O558        H587   0.990       .  S
Zr559       O562   2.437       .  S
Zr559       O563   2.438       .  S
Zr559       O564   2.399       .  S
O560        C565   1.288       .  A
O561        H578   0.990       .  S
O561        H593   0.990       .  S
O562        H579   0.990       .  S
O563        H583   0.990       .  S
O563        H592   0.990       .  S
O564        C565   1.277       .  A
C565       C3346   1.486       .  S
O566        H585   0.990       .  S
O566        H589   0.990       .  S
O567        H581   0.990   1_565  S
O567        H588   0.990       .  S
O568        C572   1.289       .  A
O569        C572   1.281       .  A
O570        H580   0.990       .  S
O571        H584   0.990   1_565  S
C572       C3306   1.485       .  S
Zr595       O596   2.442       .  S
Zr595       O597   2.452       .  S
Zr595       O598   2.452       .  S
Zr595       O601   2.430       .  S
Zr595       O603   2.379       .  S
Zr595       O604   2.387       .  S
Zr595       O605   2.412       .  S
Zr595       O606   2.402       .  S
O596        H652   0.990       .  S
O596        H660   0.991       .  S
O597        C617   1.286       .  A
O598        C619   1.286       .  A
O599       Zr609   2.422       .  S
O599        C618   1.283       .  A
O600       Zr608   2.429       .  S
O600        C619   1.284       .  A
O601        C618   1.284       .  A
O602       Zr610   2.396       .  S
O602        C617   1.277       .  A
O603       Zr608   2.394       .  S
O603       Zr610   2.385       .  S
O604       Zr609   2.392       .  S
O604       Zr610   2.378       .  S
O604        H639   0.967       .  S
O605       Zr608   2.396       .  S
O605       Zr625   2.388       .  S
O605        H642   0.965       .  S
O606       Zr609   2.389       .  S
O606       Zr625   2.384       .  S
Zr607       O632   2.440       .  S
Zr607       O626   2.446       .  S
Zr607       O634   2.465       .  S
Zr607       O622   2.460       .  S
Zr607       O613   2.400       .  S
Zr607       O614   2.412       .  S
Zr607       O615   2.386       .  S
Zr607       O616   2.387       .  S
Zr608       O627   2.437       .  S
Zr608       O620   2.435       .  S
Zr608       O621   2.411       .  S
Zr608       O614   2.401       .  S
Zr608       O615   2.396       .  S
Zr609       O611   2.436       .  S
Zr609       O633   2.438       .  S
Zr609       O635   2.419       .  S
Zr609       O613   2.387       .  S
Zr609       O616   2.393       .  S
Zr610       O636   2.435       .  S
Zr610       O637   2.436       .  S
Zr610       O612   2.438       .  S
Zr610       O613   2.390       .  S
Zr610       O614   2.381       .  S
O611        H648   0.990       .  S
O612        H643   0.990       .  S
O612        H657   0.990       .  S
O614        H640   0.965       .  S
O615       Zr625   2.380       .  S
O616       Zr625   2.381       .  S
O616        H641   0.966       .  S
C617       C3337   1.482       .  S
C618       C3257   1.478       .  S
C619       C3277   1.481       .  S
O620        H656   0.990       .  S
O621        C623   1.282       .  A
O622        C623   1.289       .  A
C623       C3706   1.488       .  S
O624       Zr625   2.440       .  S
O624        H653   0.991       .  S
Zr625       O628   2.439       .  S
Zr625       O629   2.440       .  S
Zr625       O630   2.396       .  S
O626        C631   1.286       .  A
O627        H644   0.990       .  S
O627        H659   0.990       .  S
O628        H645   0.990       .  S
O629        H649   0.990       .  S
O629        H658   0.990       .  S
O630        C631   1.278       .  A
C631       C3326   1.479       .  S
O632        H651   0.990       .  S
O632        H655   0.990       .  S
O633        H647   0.990       .  S
O633        H654   0.990       .  S
O634        C638   1.290       .  A
O635        C638   1.283       .  A
O636        H646   0.990       .  S
O637        H650   0.990       .  S
C638       C3237   1.497       .  S
Zr661       O662   2.440       .  S
Zr661       O663   2.449       .  S
Zr661       O664   2.456       .  S
Zr661       O667   2.450       .  S
Zr661       O669   2.389       .  S
Zr661       O670   2.389       .  S
Zr661       O671   2.414       .  S
Zr661       O672   2.400       .  S
O662        H718   0.990       .  S
O662        H726   0.991       .  S
O663        C683   1.286       .  A
O664        C685   1.287       .  A
O665       Zr675   2.405       .  S
O665        C684   1.280       .  A
O666       Zr674   2.434       .  S
O666        C685   1.284       .  A
O667        C684   1.288       .  A
O668       Zr676   2.402       .  S
O668        C683   1.279       .  A
O669       Zr674   2.396       .  S
O669       Zr676   2.388       .  S
O670       Zr675   2.384       .  S
O670       Zr676   2.380       .  S
O670        H705   0.967       .  S
O671       Zr674   2.395       .  S
O671       Zr691   2.381       .  S
O671        H708   0.964       .  S
O672       Zr675   2.383       .  S
O672       Zr691   2.387       .  S
Zr673       O698   2.439       .  S
Zr673       O692   2.448       .  S
Zr673       O700   2.473       .  S
Zr673       O688   2.442       .  S
Zr673       O679   2.401       .  S
Zr673       O680   2.422       .  S
Zr673       O681   2.389       .  S
Zr673       O682   2.381       .  S
Zr674       O693   2.436       .  S
Zr674       O686   2.438       .  S
Zr674       O687   2.421       .  S
Zr674       O680   2.405       .  S
Zr674       O681   2.400       .  S
Zr675       O677   2.435       .  S
Zr675       O699   2.437       .  S
Zr675       O701   2.395       .  S
Zr675       O679   2.383       .  S
Zr675       O682   2.390       .  S
Zr676       O702   2.438       .  S
Zr676       O703   2.438       .  S
Zr676       O678   2.438       .  S
Zr676       O679   2.389       .  S
Zr676       O680   2.376       .  S
O677        H714   0.990       .  S
O678        H709   0.990       .  S
O678        H723   0.990       .  S
O680        H706   0.965       .  S
O681       Zr691   2.378       .  S
O682       Zr691   2.377       .  S
O682        H707   0.966       .  S
C683       C3177   1.480       .  S
C684       C3226   1.487       .  S
C685       C3286   1.478       .  S
O686        H722   0.990       .  S
O687        C689   1.283       .  A
O688        C689   1.286       .  A
C689       C3986   1.482       .  S
O690       Zr691   2.438       .  S
O690        H719   0.990       .  S
Zr691       O694   2.438       .  S
Zr691       O695   2.439       .  S
Zr691       O696   2.399       .  S
O692        C697   1.286       .  A
O693        H710   0.990       .  S
O693        H725   0.990       .  S
O694        H711   0.990       .  S
O695        H715   0.990       .  S
O695        H724   0.990       .  S
O696        C697   1.277       .  A
C697       C3197   1.487       .  S
O698        H717   0.990       .  S
O698        H721   0.990       .  S
O699        H713   0.990       .  S
O699        H720   0.990       .  S
O700        C704   1.291       .  A
O701        C704   1.279       .  A
O702        H712   0.990       .  S
O703        H716   0.991       .  S
C704       C3157   1.494       .  S
Zr727       O728   2.441       .  S
Zr727       O729   2.445   1_565  S
Zr727       O730   2.436       .  S
Zr727       O733   2.425       .  S
Zr727       O735   2.375       .  S
Zr727       O736   2.386       .  S
Zr727       O737   2.408       .  S
Zr727       O738   2.401       .  S
O728        H784   0.990       .  S
O728        H792   0.991       .  S
O729        C749   1.284       .  A
O730        C751   1.283       .  A
O731       Zr741   2.421       .  S
O731        C750   1.284       .  A
O732       Zr740   2.432       .  S
O732        C751   1.283       .  A
O733        C750   1.282       .  A
O734       Zr742   2.405   1_545  S
O734        C749   1.278       .  A
O735       Zr740   2.391       .  S
O735       Zr742   2.381       .  S
O736       Zr741   2.389       .  S
O736       Zr742   2.375       .  S
O736        H771   0.967       .  S
O737       Zr740   2.387       .  S
O737       Zr757   2.387       .  S
O737        H774   0.965       .  S
O738       Zr741   2.384       .  S
O738       Zr757   2.382       .  S
Zr739       O764   2.441       .  S
Zr739       O758   2.453       .  S
Zr739       O766   2.464       .  S
Zr739       O754   2.473       .  S
Zr739       O745   2.408       .  S
Zr739       O746   2.419       .  S
Zr739       O747   2.387       .  S
Zr739       O748   2.385       .  S
Zr740       O759   2.434       .  S
Zr740       O752   2.436       .  S
Zr740       O753   2.401       .  S
Zr740       O746   2.404       .  S
Zr740       O747   2.397       .  S
Zr741       O743   2.437       .  S
Zr741       O765   2.435       .  S
Zr741       O767   2.414       .  S
Zr741       O745   2.389       .  S
Zr741       O748   2.391       .  S
Zr742       O768   2.434       .  S
Zr742       O769   2.435       .  S
Zr742       O744   2.437       .  S
Zr742       O745   2.395       .  S
Zr742       O746   2.377       .  S
O743        H780   0.990       .  S
O744        H775   0.990   1_565  S
O744        H789   0.990       .  S
O746        H772   0.964       .  S
O747       Zr757   2.383       .  S
O748       Zr757   2.377       .  S
O748        H773   0.966       .  S
C749       C3206   1.480       .  S
C750       C3137   1.478       .  S
C751       C3377   1.472       .  S
O752        H788   0.990       .  S
O753        C755   1.281       .  A
O754        C755   1.291       .  A
C755       C3857   1.489       .  S
O756       Zr757   2.437       .  S
O756        H785   0.990       .  S
Zr757       O760   2.438       .  S
Zr757       O761   2.439       .  S
Zr757       O762   2.401       .  S
O758        C763   1.287       .  A
O759        H776   0.990       .  S
O759        H791   0.990       .  S
O760        H777   0.990       .  S
O761        H781   0.990       .  S
O761        H790   0.990       .  S
O762        C763   1.279       .  A
C763       C3186   1.484       .  S
O764        H783   0.990       .  S
O764        H787   0.990       .  S
O765        H779   0.990       .  S
O765        H786   0.990       .  S
O766        C770   1.290       .  A
O767        C770   1.283       .  A
O768        H778   0.990   1_565  S
O769        H782   0.990       .  S
C770       C3117   1.495       .  S
Zr793       O794   2.444       .  S
Zr793       O795   2.449       .  S
Zr793       O796   2.451       .  S
Zr793       O799   2.440       .  S
Zr793       O801   2.383       .  S
Zr793       O802   2.392       .  S
Zr793       O803   2.412   1_565  S
Zr793       O804   2.399   1_565  S
O794        H850   0.990       .  S
O794        H858   0.991       .  S
O795        C815   1.285       .  A
O796        C817   1.286       .  A
O797       Zr807   2.410       .  S
O797        C816   1.282   1_545  A
O798       Zr806   2.433   1_565  S
O798        C817   1.284       .  A
O799        C816   1.286       .  A
O800       Zr808   2.390       .  S
O800        C815   1.276       .  A
O801       Zr806   2.395   1_565  S
O801       Zr808   2.390       .  S
O802       Zr807   2.393   1_565  S
O802       Zr808   2.373       .  S
O802        H837   0.968       .  S
O803       Zr806   2.391       .  S
O803       Zr823   2.390       .  S
O803        H840   0.965       .  S
O804       Zr807   2.386       .  S
O804       Zr823   2.382       .  S
Zr805       O830   2.442       .  S
Zr805       O824   2.448       .  S
Zr805       O832   2.458       .  S
Zr805       O820   2.450       .  S
Zr805       O811   2.403       .  S
Zr805       O812   2.412       .  S
Zr805       O813   2.387       .  S
Zr805       O814   2.385       .  S
Zr806       O825   2.435       .  S
Zr806       O818   2.434   1_545  S
Zr806       O819   2.409       .  S
Zr806       O812   2.402       .  S
Zr806       O813   2.396       .  S
Zr807       O809   2.435       .  S
Zr807       O831   2.437   1_545  S
Zr807       O833   2.416       .  S
Zr807       O811   2.392       .  S
Zr807       O814   2.387       .  S
Zr808       O834   2.435       .  S
Zr808       O835   2.435       .  S
Zr808       O810   2.440       .  S
Zr808       O811   2.384   1_565  S
Zr808       O812   2.380   1_565  S
O809        H846   0.990       .  S
O810        H841   0.990       .  S
O810        H855   0.990       .  S
O812        H838   0.964       .  S
O813       Zr823   2.382       .  S
O814       Zr823   2.378       .  S
O814        H839   0.967       .  S
C815       C3057   1.482       .  S
C816       C3146   1.481       .  S
C817       C3106   1.486       .  S
O818        H854   0.989       .  S
O819        C821   1.281       .  A
O820        C821   1.288       .  A
C821       C3646   1.484       .  S
O822       Zr823   2.438       .  S
O822        H851   0.991       .  S
Zr823       O826   2.435       .  S
Zr823       O827   2.442       .  S
Zr823       O828   2.403       .  S
O824        C829   1.286       .  A
O825        H842   0.990       .  S
O825        H857   0.990       .  S
O826        H843   0.990       .  S
O827        H847   0.990       .  S
O827        H856   0.990       .  S
O828        C829   1.280       .  A
C829       C3077   1.482       .  S
O830        H849   0.990       .  S
O830        H853   0.990       .  S
O831        H845   0.989       .  S
O831        H852   0.990   1_565  S
O832        C836   1.288       .  A
O833        C836   1.282       .  A
O834        H844   0.990       .  S
O835        H848   0.990       .  S
C836       C3037   1.491       .  S
Zr859       O860   2.441       .  S
Zr859       O861   2.449       .  S
Zr859       O862   2.474       .  S
Zr859       O865   2.445       .  S
Zr859       O867   2.382       .  S
Zr859       O868   2.396       .  S
Zr859       O869   2.409       .  S
Zr859       O870   2.401       .  S
O860        H916   0.990       .  S
O860        H924   0.991       .  S
O861        C881   1.287       .  A
O862        C883   1.290       .  A
O863       Zr873   2.441       .  S
O863        C882   1.288       .  A
O864       Zr872   2.417       .  S
O864        C883   1.281       .  A
O865        C882   1.287       .  A
O866       Zr874   2.409       .  S
O866        C881   1.279       .  A
O867       Zr872   2.400       .  S
O867       Zr874   2.388       .  S
O868       Zr873   2.393       .  S
O868       Zr874   2.379       .  S
O868        H903   0.965       .  S
O869       Zr872   2.394       .  S
O869       Zr889   2.389       .  S
O869        H906   0.965       .  S
O870       Zr873   2.387       .  S
O870       Zr889   2.378       .  S
Zr871       O896   2.441       .  S
Zr871       O890   2.447       .  S
Zr871       O898   2.441       .  S
Zr871       O886   2.459       .  S
Zr871       O877   2.407       .  S
Zr871       O878   2.409       .  S
Zr871       O879   2.381       .  S
Zr871       O880   2.390       .  S
Zr872       O891   2.434       .  S
Zr872       O884   2.436       .  S
Zr872       O885   2.403       .  S
Zr872       O878   2.399       .  S
Zr872       O879   2.391       .  S
Zr873       O875   2.436       .  S
Zr873       O897   2.440       .  S
Zr873       O899   2.431       .  S
Zr873       O877   2.386       .  S
Zr873       O880   2.397       .  S
Zr874       O900   2.437       .  S
Zr874       O901   2.437       .  S
Zr874       O876   2.436       .  S
Zr874       O877   2.390       .  S
Zr874       O878   2.376       .  S
O875        H912   0.990       .  S
O876        H907   0.990       .  S
O876        H921   0.989       .  S
O878        H904   0.964       .  S
O879       Zr889   2.384       .  S
O880       Zr889   2.380       .  S
O880        H905   0.966       .  S
C881       C3086   1.483       .  S
C882       C3217   1.493       .  S
C883       C3017   1.492       .  S
O884        H920   0.990       .  S
O885        C887   1.280       .  A
O886        C887   1.288       .  A
C887       C3537   1.484       .  S
O888       Zr889   2.438       .  S
O888        H917   0.991       .  S
Zr889       O892   2.439       .  S
Zr889       O893   2.437       .  S
Zr889       O894   2.398       .  S
O890        C895   1.286       .  A
O891        H908   0.990       .  S
O891        H923   0.990       .  S
O892        H909   0.990       .  S
O893        H913   0.990       .  S
O893        H922   0.990       .  S
O894        C895   1.278       .  A
C895       C3066   1.478       .  S
O896        H915   0.991       .  S
O896        H919   0.990       .  S
O897        H911   0.990       .  S
O897        H918   0.990       .  S
O898        C902   1.285       .  A
O899        C902   1.286       .  A
O900        H910   0.990       .  S
O901        H914   0.990       .  S
C902       C2997   1.488       .  S
Zr925       O926   2.440       .  S
Zr925       O927   2.447       .  S
Zr925       O928   2.467       .  S
Zr925       O931   2.435       .  S
Zr925       O933   2.380       .  S
Zr925       O934   2.395       .  S
Zr925       O935   2.408       .  S
Zr925       O936   2.407       .  S
O926        H982   0.990       .  S
O926        H990   0.990       .  S
O927        C947   1.285       .  A
O928        C949   1.289       .  A
O929       Zr939   2.423       .  S
O929        C948   1.283       .  A
O930       Zr938   2.417       .  S
O930        C949   1.281       .  A
O931        C948   1.284       .  A
O932       Zr940   2.395       .  S
O932        C947   1.277       .  A
O933       Zr938   2.388       .  S
O933       Zr940   2.383       .  S
O934       Zr939   2.398       .  S
O934       Zr940   2.379       .  S
O934        H969   0.966       .  S
O935       Zr938   2.400       .  S
O935       Zr955   2.385       .  S
O935        H972   0.965       .  S
O936       Zr939   2.391       .  S
O936       Zr955   2.389       .  S
Zr937       O962   2.440       .  S
Zr937       O956   2.445       .  S
Zr937       O964   2.442       .  S
Zr937       O952   2.452       .  S
Zr937       O943   2.403       .  S
Zr937       O944   2.408       .  S
Zr937       O945   2.379       .  S
Zr937       O946   2.386       .  S
Zr938       O957   2.437       .  S
Zr938       O950   2.434       .  S
Zr938       O951   2.414       .  S
Zr938       O944   2.397       .  S
Zr938       O945   2.395       .  S
Zr939       O941   2.436       .  S
Zr939       O963   2.438       .  S
Zr939       O965   2.425       .  S
Zr939       O943   2.387       .  S
Zr939       O946   2.393       .  S
Zr940       O966   2.434       .  S
Zr940       O967   2.436       .  S
Zr940       O942   2.438       .  S
Zr940       O943   2.388       .  S
Zr940       O944   2.381       .  S
O941        H978   0.990       .  S
O942        H973   0.990       .  S
O942        H987   0.989       .  S
O944        H970   0.965       .  S
O945       Zr955   2.379       .  S
O946       Zr955   2.379       .  S
O946        H971   0.966       .  S
C947       C2957   1.480       .  S
C948       C3266   1.479       .  S
C949       C3026   1.494       .  S
O950        H986   0.990       .  S
O951        C953   1.282       .  A
O952        C953   1.287       .  A
C953       C3506   1.484       .  S
O954       Zr955   2.439       .  S
O954        H983   0.991       .  S
Zr955       O958   2.437       .  S
Zr955       O959   2.440       .  S
Zr955       O960   2.405       .  S
O956        C961   1.286       .  A
O957        H974   0.990       .  S
O957        H989   0.990       .  S
O958        H975   0.990       .  S
O959        H979   0.990       .  S
O959        H988   0.990       .  S
O960        C961   1.279       .  A
C961       C2977   1.481       .  S
O962        H981   0.990       .  S
O962        H985   0.990       .  S
O963        H977   0.990       .  S
O963        H984   0.990       .  S
O964        C968   1.285       .  A
O965        C968   1.284       .  A
O966        H976   0.990       .  S
O967        H980   0.990       .  S
C968       C2937   1.479       .  S
Zr991       O992   2.443       .  S
Zr991       O993   2.448       .  S
Zr991       O994   2.456       .  S
Zr991       O997   2.447       .  S
Zr991       O999   2.383       .  S
Zr991      O1000   2.386       .  S
Zr991      O1001   2.412       .  S
Zr991      O1002   2.403       .  S
O992       H1048   0.990       .  S
O992       H1056   0.991       .  S
O993       C1013   1.286   1_565  A
O994       C1015   1.286       .  A
O995      Zr1005   2.407       .  S
O995       C1014   1.280       .  A
O996      Zr1004   2.425       .  S
O996       C1015   1.282       .  A
O997       C1014   1.287       .  A
O998      Zr1006   2.402   1_545  S
O998       C1013   1.279       .  A
O999      Zr1004   2.393       .  S
O999      Zr1006   2.385       .  S
O1000     Zr1005   2.387       .  S
O1000     Zr1006   2.377       .  S
O1000      H1035   0.966       .  S
O1001     Zr1004   2.399       .  S
O1001     Zr1021   2.387       .  S
O1001      H1038   0.964       .  S
O1002     Zr1005   2.384       .  S
O1002     Zr1021   2.388       .  S
Zr1003     O1028   2.441       .  S
Zr1003     O1022   2.446       .  S
Zr1003     O1030   2.460       .  S
Zr1003     O1018   2.457       .  S
Zr1003     O1009   2.404       .  S
Zr1003     O1010   2.415       .  S
Zr1003     O1011   2.387       .  S
Zr1003     O1012   2.389       .  S
Zr1004     O1023   2.437       .  S
Zr1004     O1016   2.436       .  S
Zr1004     O1017   2.413       .  S
Zr1004     O1010   2.402       .  S
Zr1004     O1011   2.398       .  S
Zr1005     O1007   2.435       .  S
Zr1005     O1029   2.435       .  S
Zr1005     O1031   2.404       .  S
Zr1005     O1009   2.388       .  S
Zr1005     O1012   2.389       .  S
Zr1006     O1032   2.436       .  S
Zr1006     O1033   2.437       .  S
Zr1006     O1008   2.437       .  S
Zr1006     O1009   2.387       .  S
Zr1006     O1010   2.385       .  S
O1007      H1044   0.990       .  S
O1008      H1039   0.990       .  S
O1008      H1053   0.990       .  S
O1010      H1036   0.965       .  S
O1011     Zr1021   2.380       .  S
O1012     Zr1021   2.375       .  S
O1012      H1037   0.966       .  S
C1013      C2986   1.480       .  S
C1014      C3357   1.485       .  S
C1015      C3097   1.473       .  S
O1016      H1052   0.990       .  S
O1017      C1019   1.282       .  A
O1018      C1019   1.287       .  A
C1019      C3417   1.487       .  S
O1020     Zr1021   2.439       .  S
O1020      H1049   0.990       .  S
Zr1021     O1024   2.438       .  S
Zr1021     O1025   2.440       .  S
Zr1021     O1026   2.401       .  S
O1022      C1027   1.285       .  A
O1023      H1040   0.990       .  S
O1023      H1055   0.990       .  S
O1024      H1041   0.990       .  S
O1025      H1045   0.990       .  S
O1025      H1054   0.990       .  S
O1026      C1027   1.278       .  A
C1027      C2966   1.481       .  S
O1028      H1047   0.990       .  S
O1028      H1051   0.990       .  S
O1029      H1043   0.990       .  S
O1029      H1050   0.990       .  S
O1030      C1034   1.289       .  A
O1031      C1034   1.280       .  A
O1032      H1042   0.990       .  S
O1033      H1046   0.990       .  S
C1034      C2917   1.491       .  S
Zr1057     O1058   2.441       .  S
Zr1057     O1059   2.444       .  S
Zr1057     O1060   2.470       .  S
Zr1057     O1063   2.455       .  S
Zr1057     O1065   2.386       .  S
Zr1057     O1066   2.393       .  S
Zr1057     O1067   2.410       .  S
Zr1057     O1068   2.403       .  S
O1058      H1114   0.990       .  S
O1058      H1122   0.990       .  S
O1059      C1079   1.285       .  A
O1060      C1081   1.289       .  A
O1061     Zr1071   2.411       .  S
O1061      C1080   1.283       .  A
O1062     Zr1070   2.414       .  S
O1062      C1081   1.282       .  A
O1063      C1080   1.288       .  A
O1064     Zr1072   2.407       .  S
O1064      C1079   1.279       .  A
O1065     Zr1070   2.396       .  S
O1065     Zr1072   2.384       .  S
O1066     Zr1071   2.390       .  S
O1066     Zr1072   2.380       .  S
O1066      H1101   0.966       .  S
O1067     Zr1070   2.399       .  S
O1067     Zr1087   2.392       .  S
O1067      H1104   0.965       .  S
O1068     Zr1071   2.387       .  S
O1068     Zr1087   2.382       .  S
Zr1069     O1094   2.441       .  S
Zr1069     O1088   2.452       .  S
Zr1069     O1096   2.449       .  S
Zr1069     O1084   2.441       .  S
Zr1069     O1075   2.402       .  S
Zr1069     O1076   2.413       .  S
Zr1069     O1077   2.382       .  S
Zr1069     O1078   2.382       .  S
Zr1070     O1089   2.435       .  S
Zr1070     O1082   2.436       .  S
Zr1070     O1083   2.415       .  S
Zr1070     O1076   2.398       .  S
Zr1070     O1077   2.395       .  S
Zr1071     O1073   2.435       .  S
Zr1071     O1095   2.437       .  S
Zr1071     O1097   2.424       .  S
Zr1071     O1075   2.381       .  S
Zr1071     O1078   2.390       .  S
Zr1072     O1098   2.437       .  S
Zr1072     O1099   2.437       .  S
Zr1072     O1074   2.438       .  S
Zr1072     O1075   2.387       .  S
Zr1072     O1076   2.387       .  S
O1073      H1110   0.990       .  S
O1074      H1105   0.990       .  S
O1074      H1119   0.990       .  S
O1076      H1102   0.965       .  S
O1077     Zr1087   2.382       .  S
O1078     Zr1087   2.382       .  S
O1078      H1103   0.966       .  S
C1079      C2826   1.481   1_545  S
C1080      C2866   1.486       .  S
C1081      C3586   1.495       .  S
O1082      H1118   0.990       .  S
O1083      C1085   1.282       .  A
O1084      C1085   1.285       .  A
C1085      C2877   1.480       .  S
O1086     Zr1087   2.439       .  S
O1086      H1115   0.991       .  S
Zr1087     O1090   2.438       .  S
Zr1087     O1091   2.442       .  S
Zr1087     O1092   2.399       .  S
O1088      C1093   1.287       .  A
O1089      H1106   0.990       .  S
O1089      H1121   0.990       .  S
O1090      H1107   0.990       .  S
O1091      H1111   0.990       .  S
O1091      H1120   0.990       .  S
O1092      C1093   1.277       .  A
C1093      C2846   1.480       .  S
O1094      H1113   0.991       .  S
O1094      H1117   0.990       .  S
O1095      H1109   0.990       .  S
O1095      H1116   0.990       .  S
O1096      C1100   1.287       .  A
O1097      C1100   1.284       .  A
O1098      H1108   0.990       .  S
O1099      H1112   0.990       .  S
C1100      C2897   1.494       .  S
Zr1123     O1124   2.443       .  S
Zr1123     O1125   2.450       .  S
Zr1123     O1126   2.469       .  S
Zr1123     O1129   2.454       .  S
Zr1123     O1131   2.377       .  S
Zr1123     O1132   2.396       .  S
Zr1123     O1133   2.413       .  S
Zr1123     O1134   2.400       .  S
O1124      H1180   0.990       .  S
O1124      H1188   0.990       .  S
O1125      C1145   1.285       .  A
O1126      C1147   1.289       .  A
O1127     Zr1137   2.420       .  S
O1127      C1146   1.284       .  A
O1128     Zr1136   2.419       .  S
O1128      C1147   1.282       .  A
O1129      C1146   1.288       .  A
O1130     Zr1138   2.393       .  S
O1130      C1145   1.276       .  A
O1131     Zr1136   2.390       .  S
O1131     Zr1138   2.381       .  S
O1132     Zr1137   2.397       .  S
O1132     Zr1138   2.383       .  S
O1132      H1167   0.966       .  S
O1133     Zr1136   2.398       .  S
O1133     Zr1153   2.399       .  S
O1133      H1170   0.965       .  S
O1134     Zr1137   2.385       .  S
O1134     Zr1153   2.380       .  S
Zr1135     O1160   2.441       .  S
Zr1135     O1154   2.451       .  S
Zr1135     O1162   2.455       .  S
Zr1135     O1150   2.463       .  S
Zr1135     O1141   2.402       .  S
Zr1135     O1142   2.413       .  S
Zr1135     O1143   2.385       .  S
Zr1135     O1144   2.384       .  S
Zr1136     O1155   2.434       .  S
Zr1136     O1148   2.435       .  S
Zr1136     O1149   2.414       .  S
Zr1136     O1142   2.404       .  S
Zr1136     O1143   2.398       .  S
Zr1137     O1139   2.435       .  S
Zr1137     O1161   2.438       .  S
Zr1137     O1163   2.433       .  S
Zr1137     O1141   2.385       .  S
Zr1137     O1144   2.392       .  S
Zr1138     O1164   2.436       .  S
Zr1138     O1165   2.435       .  S
Zr1138     O1140   2.438       .  S
Zr1138     O1141   2.387       .  S
Zr1138     O1142   2.382       .  S
O1139      H1176   0.990       .  S
O1140      H1171   0.990       .  S
O1140      H1185   0.990       .  S
O1142      H1168   0.965       .  S
O1143     Zr1153   2.379       .  S
O1144     Zr1153   2.382       .  S
O1144      H1169   0.966       .  S
C1145      C2837   1.478       .  S
C1146      C2757   1.484       .  S
C1147      C3526   1.496       .  S
O1148      H1184   0.990       .  S
O1149      C1151   1.282       .  A
O1150      C1151   1.289       .  A
C1151      C2777   1.489       .  S
O1152     Zr1153   2.438       .  S
O1152      H1181   0.991       .  S
Zr1153     O1156   2.438       .  S
Zr1153     O1157   2.441       .  S
Zr1153     O1158   2.407       .  S
O1154      C1159   1.287       .  A
O1155      H1172   0.990       .  S
O1155      H1187   0.990       .  S
O1156      H1173   0.990       .  S
O1157      H1177   0.990       .  S
O1157      H1186   0.990       .  S
O1158      C1159   1.278       .  A
C1159      C2817   1.484       .  S
O1160      H1179   0.990       .  S
O1160      H1183   0.990       .  S
O1161      H1175   0.990       .  S
O1161      H1182   0.990       .  S
O1162      C1166   1.288       .  A
O1163      C1166   1.286       .  A
O1164      H1174   0.990       .  S
O1165      H1178   0.990       .  S
C1166      C2797   1.495       .  S
Zr1189     O1190   2.443       .  S
Zr1189     O1191   2.455       .  S
Zr1189     O1192   2.457       .  S
Zr1189     O1195   2.464       .  S
Zr1189     O1197   2.387       .  S
Zr1189     O1198   2.390       .  S
Zr1189     O1199   2.417       .  S
Zr1189     O1200   2.399       .  S
O1190      H1246   0.990       .  S
O1190      H1254   0.991       .  S
O1191      C1211   1.287       .  A
O1192      C1213   1.287       .  A
O1193     Zr1203   2.417       .  S
O1193      C1212   1.283       .  A
O1194     Zr1202   2.427       .  S
O1194      C1213   1.283       .  A
O1195      C1212   1.290       .  A
O1196     Zr1204   2.391       .  S
O1196      C1211   1.276       .  A
O1197     Zr1202   2.397       .  S
O1197     Zr1204   2.387       .  S
O1198     Zr1203   2.390       .  S
O1198     Zr1204   2.381       .  S
O1198      H1233   0.966       .  S
O1199     Zr1202   2.398       .  S
O1199     Zr1219   2.395       .  S
O1199      H1236   0.964       .  S
O1200     Zr1203   2.384       .  S
O1200     Zr1219   2.383       .  S
Zr1201     O1226   2.442       .  S
Zr1201     O1220   2.450       .  S
Zr1201     O1228   2.450       .  S
Zr1201     O1216   2.447       .  S
Zr1201     O1207   2.403       .  S
Zr1201     O1208   2.406       .  S
Zr1201     O1209   2.382       .  S
Zr1201     O1210   2.382       .  S
Zr1202     O1221   2.436       .  S
Zr1202     O1214   2.438       .  S
Zr1202     O1215   2.424       .  S
Zr1202     O1208   2.395       .  S
Zr1202     O1209   2.394       .  S
Zr1203     O1205   2.435       .  S
Zr1203     O1227   2.436       .  S
Zr1203     O1229   2.422       .  S
Zr1203     O1207   2.391       .  S
Zr1203     O1210   2.390       .  S
Zr1204     O1230   2.437       .  S
Zr1204     O1231   2.434       .  S
Zr1204     O1206   2.436       .  S
Zr1204     O1207   2.383       .  S
Zr1204     O1208   2.379       .  S
O1205      H1242   0.990       .  S
O1206      H1237   0.990       .  S
O1206      H1251   0.990       .  S
O1208      H1234   0.965       .  S
O1209     Zr1219   2.378       .  S
O1210     Zr1219   2.374       .  S
O1210      H1235   0.966       .  S
C1211      C2686   1.481       .  S
C1212      C2726   1.491       .  S
C1213      C3446   1.488       .  S
O1214      H1250   0.990       .  S
O1215      C1217   1.284       .  A
O1216      C1217   1.287       .  A
C1217      C2746   1.490       .  S
O1218     Zr1219   2.437       .  S
O1218      H1247   0.990       .  S
Zr1219     O1222   2.437       .  S
Zr1219     O1223   2.439       .  S
Zr1219     O1224   2.409       .  S
O1220      C1225   1.287       .  A
O1221      H1238   0.990       .  S
O1221      H1253   0.990       .  S
O1222      H1239   0.990       .  S
O1223      H1243   0.990       .  S
O1223      H1252   0.990       .  S
O1224      C1225   1.279       .  A
C1225      C2697   1.479       .  S
O1226      H1245   0.990       .  S
O1226      H1249   0.991       .  S
O1227      H1241   0.990       .  S
O1227      H1248   0.990       .  S
O1228      C1232   1.287       .  A
O1229      C1232   1.283       .  A
O1230      H1240   0.990       .  S
O1231      H1244   0.990       .  S
C1232      C2906   1.489       .  S
Zr1255     O1256   2.441       .  S
Zr1255     O1257   2.446       .  S
Zr1255     O1258   2.470       .  S
Zr1255     O1261   2.459       .  S
Zr1255     O1263   2.383       .  S
Zr1255     O1264   2.396       .  S
Zr1255     O1265   2.412       .  S
Zr1255     O1266   2.399       .  S
O1256      H1312   0.990       .  S
O1256      H1320   0.990       .  S
O1257      C1277   1.285       .  A
O1258      C1279   1.290       .  A
O1259     Zr1269   2.416       .  S
O1259      C1278   1.283       .  A
O1260     Zr1268   2.432       .  S
O1260      C1279   1.285       .  A
O1261      C1278   1.289       .  A
O1262     Zr1270   2.404       .  S
O1262      C1277   1.278       .  A
O1263     Zr1268   2.392       .  S
O1263     Zr1270   2.386       .  S
O1264     Zr1269   2.393       .  S
O1264     Zr1270   2.382       .  S
O1264      H1299   0.966       .  S
O1265     Zr1268   2.397       .  S
O1265     Zr1285   2.386       .  S
O1265      H1302   0.964       .  S
O1266     Zr1269   2.388       .  S
O1266     Zr1285   2.382       .  S
Zr1267     O1292   2.439       .  S
Zr1267     O1286   2.443       .  S
Zr1267     O1294   2.467       .  S
Zr1267     O1282   2.458       .  S
Zr1267     O1273   2.405       .  S
Zr1267     O1274   2.409       .  S
Zr1267     O1275   2.383       .  S
Zr1267     O1276   2.386       .  S
Zr1268     O1287   2.434       .  S
Zr1268     O1280   2.436       .  S
Zr1268     O1281   2.421       .  S
Zr1268     O1274   2.399       .  S
Zr1268     O1275   2.396       .  S
Zr1269     O1271   2.437       .  S
Zr1269     O1293   2.437       .  S
Zr1269     O1295   2.422       .  S
Zr1269     O1273   2.391       .  S
Zr1269     O1276   2.390       .  S
Zr1270     O1296   2.439       .  S
Zr1270     O1297   2.436       .  S
Zr1270     O1272   2.437       .  S
Zr1270     O1273   2.389       .  S
Zr1270     O1274   2.383       .  S
O1271      H1308   0.990       .  S
O1272      H1303   0.990       .  S
O1272      H1317   0.990       .  S
O1274      H1300   0.965       .  S
O1275     Zr1285   2.377       .  S
O1276     Zr1285   2.380       .  S
O1276      H1301   0.966       .  S
C1277      C2706   1.484       .  S
C1278      C2637   1.485       .  S
C1279      C3406   1.488       .  S
O1280      H1316   0.990       .  S
O1281      C1283   1.284       .  A
O1282      C1283   1.290       .  A
C1283      C2657   1.492       .  S
O1284     Zr1285   2.438       .  S
O1284      H1313   0.990       .  S
Zr1285     O1288   2.438       .  S
Zr1285     O1289   2.438       .  S
Zr1285     O1290   2.402       .  S
O1286      C1291   1.285       .  A
O1287      H1304   0.990       .  S
O1287      H1319   0.990       .  S
O1288      H1305   0.990       .  S
O1289      H1309   0.990       .  S
O1289      H1318   0.990       .  S
O1290      C1291   1.278       .  A
C1291      C2677   1.476       .  S
O1292      H1311   0.990       .  S
O1292      H1315   0.990       .  S
O1293      H1307   0.990       .  S
O1293      H1314   0.990       .  S
O1294      C1298   1.290       .  A
O1295      C1298   1.283       .  A
O1296      H1306   0.990       .  S
O1297      H1310   0.991       .  S
C1298      C2806   1.491       .  S
Zr1321     O1322   2.443       .  S
Zr1321     O1323   2.446       .  S
Zr1321     O1324   2.460       .  S
Zr1321     O1327   2.438       .  S
Zr1321     O1329   2.376       .  S
Zr1321     O1330   2.393       .  S
Zr1321     O1331   2.411       .  S
Zr1321     O1332   2.401       .  S
O1322      H1378   0.990       .  S
O1322      H1386   0.990       .  S
O1323      C1343   1.285       .  A
O1324      C1345   1.287       .  A
O1325     Zr1335   2.426       .  S
O1325      C1344   1.285       .  A
O1326     Zr1334   2.429       .  S
O1326      C1345   1.284       .  A
O1327      C1344   1.285       .  A
O1328     Zr1336   2.397       .  S
O1328      C1343   1.276       .  A
O1329     Zr1334   2.392       .  S
O1329     Zr1336   2.385       .  S
O1330     Zr1335   2.398       .  S
O1330     Zr1336   2.379       .  S
O1330      H1365   0.966       .  S
O1331     Zr1334   2.396       .  S
O1331     Zr1351   2.391       .  S
O1331      H1368   0.964       .  S
O1332     Zr1335   2.386       .  S
O1332     Zr1351   2.381       .  S
Zr1333     O1358   2.442       .  S
Zr1333     O1352   2.455       .  S
Zr1333     O1360   2.458       .  S
Zr1333     O1348   2.454       .  S
Zr1333     O1339   2.405       .  S
Zr1333     O1340   2.410       .  S
Zr1333     O1341   2.383       .  S
Zr1333     O1342   2.385       .  S
Zr1334     O1353   2.437       .  S
Zr1334     O1346   2.434       .  S
Zr1334     O1347   2.416       .  S
Zr1334     O1340   2.401       .  S
Zr1334     O1341   2.395       .  S
Zr1335     O1337   2.435       .  S
Zr1335     O1359   2.437       .  S
Zr1335     O1361   2.427       .  S
Zr1335     O1339   2.394       .  S
Zr1335     O1342   2.395       .  S
Zr1336     O1362   2.438       .  S
Zr1336     O1363   2.435       .  S
Zr1336     O1338   2.437       .  S
Zr1336     O1339   2.386       .  S
Zr1336     O1340   2.384       .  S
O1337      H1374   0.990       .  S
O1338      H1369   0.990       .  S
O1338      H1383   0.990       .  S
O1340      H1366   0.965       .  S
O1341     Zr1351   2.377       .  S
O1342     Zr1351   2.381       .  S
O1342      H1367   0.966       .  S
C1343      C2557   1.482       .  S
C1344      C2597   1.484       .  S
C1345      C3926   1.495       .  S
O1346      H1382   0.990       .  S
O1347      C1349   1.282       .  A
O1348      C1349   1.288       .  A
C1349      C2886   1.486       .  S
O1350     Zr1351   2.439       .  S
O1350      H1379   0.990       .  S
Zr1351     O1354   2.437       .  S
Zr1351     O1355   2.441       .  S
Zr1351     O1356   2.399       .  S
O1352      C1357   1.287       .  A
O1353      H1370   0.990       .  S
O1353      H1385   0.990       .  S
O1354      H1371   0.990       .  S
O1355      H1375   0.990       .  S
O1355      H1384   0.990       .  S
O1356      C1357   1.278       .  A
C1357      C2577   1.490       .  S
O1358      H1377   0.990       .  S
O1358      H1381   0.991       .  S
O1359      H1373   0.990       .  S
O1359      H1380   0.990       .  S
O1360      C1364   1.288       .  A
O1361      C1364   1.284       .  A
O1362      H1372   0.990       .  S
O1363      H1376   0.990       .  S
C1364      C2617   1.491       .  S
Zr1387     O1388   2.442       .  S
Zr1387     O1389   2.435       .  S
Zr1387     O1390   2.457       .  S
Zr1387     O1393   2.438       .  S
Zr1387     O1395   2.379       .  S
Zr1387     O1396   2.392       .  S
Zr1387     O1397   2.409       .  S
Zr1387     O1398   2.400       .  S
O1388      H1444   0.991       .  S
O1388      H1452   0.990       .  S
O1389      C1409   1.282       .  A
O1390      C1411   1.286       .  A
O1391     Zr1401   2.411       .  S
O1391      C1410   1.283       .  A
O1392     Zr1400   2.430       .  S
O1392      C1411   1.284       .  A
O1393      C1410   1.285       .  A
O1394     Zr1402   2.409       .  S
O1394      C1409   1.279       .  A
O1395     Zr1400   2.394       .  S
O1395     Zr1402   2.382       .  S
O1396     Zr1401   2.397       .  S
O1396     Zr1402   2.379       .  S
O1396      H1431   0.966       .  S
O1397     Zr1400   2.400       .  S
O1397     Zr1417   2.387       .  S
O1397      H1434   0.964       .  S
O1398     Zr1401   2.393       .  S
O1398     Zr1417   2.383       .  S
Zr1399     O1424   2.440       .  S
Zr1399     O1418   2.456       .  S
Zr1399     O1426   2.457       .  S
Zr1399     O1414   2.441       .  S
Zr1399     O1405   2.399       .  S
Zr1399     O1406   2.417       .  S
Zr1399     O1407   2.382       .  S
Zr1399     O1408   2.386       .  S
Zr1400     O1419   2.435       .  S
Zr1400     O1412   2.435       .  S
Zr1400     O1413   2.419       .  S
Zr1400     O1406   2.400       .  S
Zr1400     O1407   2.398       .  S
Zr1401     O1403   2.438       .  S
Zr1401     O1425   2.437       .  S
Zr1401     O1427   2.429       .  S
Zr1401     O1405   2.377       .  S
Zr1401     O1408   2.389       .  S
Zr1402     O1428   2.436       .  S
Zr1402     O1429   2.437       .  S
Zr1402     O1404   2.438       .  S
Zr1402     O1405   2.380       .  S
Zr1402     O1406   2.393       .  S
O1403      H1440   0.990       .  S
O1404      H1435   0.990       .  S
O1404      H1449   0.990       .  S
O1406      H1432   0.965       .  S
O1407     Zr1417   2.379       .  S
O1408     Zr1417   2.387       .  S
O1408      H1433   0.966       .  S
C1409      C2586   1.473       .  S
C1410      C2517   1.480       .  S
C1411      C3846   1.487       .  S
O1412      H1448   0.990       .  S
O1413      C1415   1.282       .  A
O1414      C1415   1.285       .  A
C1415      C2786   1.482       .  S
O1416     Zr1417   2.439       .  S
O1416      H1445   0.991       .  S
Zr1417     O1420   2.438       .  S
Zr1417     O1421   2.440       .  S
Zr1417     O1422   2.393       .  S
O1418      C1423   1.287       .  A
O1419      H1436   0.990       .  S
O1419      H1451   0.990       .  S
O1420      H1437   0.990       .  S
O1421      H1441   0.990       .  S
O1421      H1450   0.990       .  S
O1422      C1423   1.276       .  A
C1423      C2566   1.478       .  S
O1424      H1443   0.991       .  S
O1424      H1447   0.990       .  S
O1425      H1439   0.990       .  S
O1425      H1446   0.990       .  S
O1426      C1430   1.288       .  A
O1427      C1430   1.285       .  A
O1428      H1438   0.990       .  S
O1429      H1442   0.990       .  S
C1430      C2546   1.494       .  S
Zr1453     O1454   2.443       .  S
Zr1453     O1455   2.454       .  S
Zr1453     O1456   2.463       .  S
Zr1453     O1459   2.447       .  S
Zr1453     O1461   2.383       .  S
Zr1453     O1462   2.391       .  S
Zr1453     O1463   2.412       .  S
Zr1453     O1464   2.403       .  S
O1454      H1510   0.990       .  S
O1454      H1518   0.991       .  S
O1455      C1475   1.286       .  A
O1456      C1477   1.288       .  A
O1457     Zr1467   2.406       .  S
O1457      C1476   1.282       .  A
O1458     Zr1466   2.416       .  S
O1458      C1477   1.281       .  A
O1459      C1476   1.287       .  A
O1460     Zr1468   2.402       .  S
O1460      C1475   1.279       .  A
O1461     Zr1466   2.397       .  S
O1461     Zr1468   2.381       .  S
O1462     Zr1467   2.388       .  S
O1462     Zr1468   2.375       .  S
O1462      H1497   0.966       .  S
O1463     Zr1466   2.396       .  S
O1463     Zr1483   2.395       .  S
O1463      H1500   0.965       .  S
O1464     Zr1467   2.388       .  S
O1464     Zr1483   2.378       .  S
Zr1465     O1490   2.440       .  S
Zr1465     O1484   2.452       .  S
Zr1465     O1492   2.454       .  S
Zr1465     O1480   2.456       .  S
Zr1465     O1471   2.404       .  S
Zr1465     O1472   2.413       .  S
Zr1465     O1473   2.385       .  S
Zr1465     O1474   2.385       .  S
Zr1466     O1485   2.437       .  S
Zr1466     O1478   2.432       .  S
Zr1466     O1479   2.425       .  S
Zr1466     O1472   2.397       .  S
Zr1466     O1473   2.389       .  S
Zr1467     O1469   2.436       .  S
Zr1467     O1491   2.438       .  S
Zr1467     O1493   2.419       .  S
Zr1467     O1471   2.382       .  S
Zr1467     O1474   2.393       .  S
Zr1468     O1494   2.435       .  S
Zr1468     O1495   2.435       .  S
Zr1468     O1470   2.437       .  S
Zr1468     O1471   2.392       .  S
Zr1468     O1472   2.381       .  S
O1469      H1506   0.990       .  S
O1470      H1501   0.990       .  S
O1470      H1515   0.990       .  S
O1472      H1498   0.964       .  S
O1473     Zr1483   2.382       .  S
O1474     Zr1483   2.386       .  S
O1474      H1499   0.966       .  S
C1475      C2457   1.487   1_545  S
C1476      C2497   1.477       .  S
C1477      C3737   1.494       .  S
O1478      H1514   0.990       .  S
O1479      C1481   1.285       .  A
O1480      C1481   1.287       .  A
C1481      C2737   1.492       .  S
O1482     Zr1483   2.440       .  S
O1482      H1511   0.990       .  S
Zr1483     O1486   2.437       .  S
Zr1483     O1487   2.442       .  S
Zr1483     O1488   2.402       .  S
O1484      C1489   1.287       .  A
O1485      H1502   0.990       .  S
O1485      H1517   0.990       .  S
O1486      H1503   0.990       .  S
O1487      H1507   0.990       .  S
O1487      H1516   0.990       .  S
O1488      C1489   1.279       .  A
C1489      C2477   1.482       .  S
O1490      H1509   0.990       .  S
O1490      H1513   0.990       .  S
O1491      H1505   0.990       .  S
O1491      H1512   0.990       .  S
O1492      C1496   1.288       .  A
O1493      C1496   1.283       .  A
O1494      H1504   0.990       .  S
O1495      H1508   0.990       .  S
C1496      C2626   1.493       .  S
Zr1519     O1520   2.441       .  S
Zr1519     O1521   2.440       .  S
Zr1519     O1522   2.450       .  S
Zr1519     O1525   2.450       .  S
Zr1519     O1527   2.385       .  S
Zr1519     O1528   2.395       .  S
Zr1519     O1529   2.414       .  S
Zr1519     O1530   2.394       .  S
O1520      H1576   0.990       .  S
O1520      H1584   0.991       .  S
O1521      C1541   1.283       .  A
O1522      C1543   1.286       .  A
O1523     Zr1533   2.419       .  S
O1523      C1542   1.283       .  A
O1524     Zr1532   2.438       .  S
O1524      C1543   1.286       .  A
O1525      C1542   1.288       .  A
O1526     Zr1534   2.405       .  S
O1526      C1541   1.279       .  A
O1527     Zr1532   2.396       .  S
O1527     Zr1534   2.381       .  S
O1528     Zr1533   2.392       .  S
O1528     Zr1534   2.380       .  S
O1528      H1563   0.966       .  S
O1529     Zr1532   2.399       .  S
O1529     Zr1549   2.387       .  S
O1529      H1566   0.964       .  S
O1530     Zr1533   2.387       .  S
O1530     Zr1549   2.374       .  S
Zr1531     O1556   2.441       .  S
Zr1531     O1550   2.459       .  S
Zr1531     O1558   2.458       .  S
Zr1531     O1546   2.431       .  S
Zr1531     O1537   2.407       .  S
Zr1531     O1538   2.412       .  S
Zr1531     O1539   2.380       .  S
Zr1531     O1540   2.377       .  S
Zr1532     O1551   2.436       .  S
Zr1532     O1544   2.436       .  S
Zr1532     O1545   2.438       .  S
Zr1532     O1538   2.397       .  S
Zr1532     O1539   2.391       .  S
Zr1533     O1535   2.435       .  S
Zr1533     O1557   2.440       .  S
Zr1533     O1559   2.426       .  S
Zr1533     O1537   2.389       .  S
Zr1533     O1540   2.389       .  S
Zr1534     O1560   2.436       .  S
Zr1534     O1561   2.435       .  S
Zr1534     O1536   2.438       .  S
Zr1534     O1537   2.397       .  S
Zr1534     O1538   2.385       .  S
O1535      H1572   0.990       .  S
O1536      H1567   0.990       .  S
O1536      H1581   0.990       .  S
O1538      H1564   0.966       .  S
O1539     Zr1549   2.377       .  S
O1540     Zr1549   2.382       .  S
O1540      H1565   0.966       .  S
C1541      C2486   1.476       .  S
C1542      C2437   1.484       .  S
C1543      C3686   1.482       .  S
O1544      H1580   0.990       .  S
O1545      C1547   1.287       .  A
O1546      C1547   1.285       .  A
C1547      C2666   1.489       .  S
O1548     Zr1549   2.437       .  S
O1548      H1577   0.990       .  S
Zr1549     O1552   2.438       .  S
Zr1549     O1553   2.437       .  S
Zr1549     O1554   2.394       .  S
O1550      C1555   1.289       .  A
O1551      H1568   0.990       .  S
O1551      H1583   0.990       .  S
O1552      H1569   0.990       .  S
O1553      H1573   0.990       .  S
O1553      H1582   0.990       .  S
O1554      C1555   1.278       .  A
C1555      C2466   1.483       .  S
O1556      H1575   0.990       .  S
O1556      H1579   0.990       .  S
O1557      H1571   0.990       .  S
O1557      H1578   0.990       .  S
O1558      C1562   1.288       .  A
O1559      C1562   1.283       .  A
O1560      H1570   0.990       .  S
O1561      H1574   0.990       .  S
C1562      C2537   1.498       .  S
Zr1585     O1586   2.443       .  S
Zr1585     O1587   2.452       .  S
Zr1585     O1588   2.449       .  S
Zr1585     O1591   2.458       .  S
Zr1585     O1593   2.382       .  S
Zr1585     O1594   2.389       .  S
Zr1585     O1595   2.416       .  S
Zr1585     O1596   2.396       .  S
O1586      H1642   0.990       .  S
O1586      H1650   0.990       .  S
O1587      C1607   1.286       .  A
O1588      C1609   1.285       .  A
O1589     Zr1599   2.420       .  S
O1589      C1608   1.283       .  A
O1590     Zr1598   2.420       .  S
O1590      C1609   1.283       .  A
O1591      C1608   1.289       .  A
O1592     Zr1600   2.402       .  S
O1592      C1607   1.278       .  A
O1593     Zr1598   2.399       .  S
O1593     Zr1600   2.382       .  S
O1594     Zr1599   2.390       .  S
O1594     Zr1600   2.380       .  S
O1594      H1629   0.966       .  S
O1595     Zr1598   2.397       .  S
O1595     Zr1615   2.396   1_545  S
O1595      H1632   0.964       .  S
O1596     Zr1599   2.386       .  S
O1596     Zr1615   2.376   1_545  S
Zr1597     O1622   2.440       .  S
Zr1597     O1616   2.448       .  S
Zr1597     O1624   2.453       .  S
Zr1597     O1612   2.446       .  S
Zr1597     O1603   2.403   1_565  S
Zr1597     O1604   2.407   1_565  S
Zr1597     O1605   2.383       .  S
Zr1597     O1606   2.384       .  S
Zr1598     O1617   2.436       .  S
Zr1598     O1610   2.437       .  S
Zr1598     O1611   2.426       .  S
Zr1598     O1604   2.393       .  S
Zr1598     O1605   2.391   1_545  S
Zr1599     O1601   2.437       .  S
Zr1599     O1623   2.438       .  S
Zr1599     O1625   2.420       .  S
Zr1599     O1603   2.393       .  S
Zr1599     O1606   2.392   1_545  S
Zr1600     O1626   2.435       .  S
Zr1600     O1627   2.436       .  S
Zr1600     O1602   2.437       .  S
Zr1600     O1603   2.387       .  S
Zr1600     O1604   2.383       .  S
O1601      H1638   0.990       .  S
O1602      H1633   0.990       .  S
O1602      H1647   0.990       .  S
O1604      H1630   0.965       .  S
O1605     Zr1615   2.380       .  S
O1606     Zr1615   2.380       .  S
O1606      H1631   0.966       .  S
C1607      C2386   1.473       .  S
C1608      C2506   1.484       .  S
C1609      C3297   1.485       .  S
O1610      H1646   0.990       .  S
O1611      C1613   1.284   1_545  A
O1612      C1613   1.287       .  A
C1613      C2406   1.490       .  S
O1614     Zr1615   2.438       .  S
O1614      H1643   0.990       .  S
Zr1615     O1618   2.438       .  S
Zr1615     O1619   2.439       .  S
Zr1615     O1620   2.397       .  S
O1616      C1621   1.286       .  A
O1617      H1634   0.990       .  S
O1617      H1649   0.990       .  S
O1618      H1635   0.990       .  S
O1619      H1639   0.990       .  S
O1619      H1648   0.990       .  S
O1620      C1621   1.277       .  A
C1621      C2357   1.472       .  S
O1622      H1641   0.990       .  S
O1622      H1645   0.990       .  S
O1623      H1637   0.989       .  S
O1623      H1644   0.990       .  S
O1624      C1628   1.287   1_565  A
O1625      C1628   1.283       .  A
O1626      H1636   0.990       .  S
O1627      H1640   0.990       .  S
C1628      C2417   1.492   1_545  S
Zr1651     O1652   2.440       .  S
Zr1651     O1653   2.450       .  S
Zr1651     O1654   2.452       .  S
Zr1651     O1657   2.453       .  S
Zr1651     O1659   2.382       .  S
Zr1651     O1660   2.392       .  S
Zr1651     O1661   2.414       .  S
Zr1651     O1662   2.395       .  S
O1652      H1708   0.990       .  S
O1652      H1716   0.991       .  S
O1653      C1673   1.286       .  A
O1654      C1675   1.287       .  A
O1655     Zr1665   2.413       .  S
O1655      C1674   1.282       .  A
O1656     Zr1664   2.429       .  S
O1656      C1675   1.284       .  A
O1657      C1674   1.288       .  A
O1658     Zr1666   2.401       .  S
O1658      C1673   1.278       .  A
O1659     Zr1664   2.392       .  S
O1659     Zr1666   2.382       .  S
O1660     Zr1665   2.393       .  S
O1660     Zr1666   2.380       .  S
O1660      H1695   0.966       .  S
O1661     Zr1664   2.397       .  S
O1661     Zr1681   2.385       .  S
O1661      H1698   0.964       .  S
O1662     Zr1665   2.385       .  S
O1662     Zr1681   2.378       .  S
Zr1663     O1688   2.442       .  S
Zr1663     O1682   2.467       .  S
Zr1663     O1690   2.455       .  S
Zr1663     O1678   2.447       .  S
Zr1663     O1669   2.406       .  S
Zr1663     O1670   2.416       .  S
Zr1663     O1671   2.379       .  S
Zr1663     O1672   2.385       .  S
Zr1664     O1683   2.436       .  S
Zr1664     O1676   2.435       .  S
Zr1664     O1677   2.424       .  S
Zr1664     O1670   2.399       .  S
Zr1664     O1671   2.393       .  S
Zr1665     O1667   2.435       .  S
Zr1665     O1689   2.440       .  S
Zr1665     O1691   2.417       .  S
Zr1665     O1669   2.389       .  S
Zr1665     O1672   2.397       .  S
Zr1666     O1692   2.437       .  S
Zr1666     O1693   2.435       .  S
Zr1666     O1668   2.438       .  S
Zr1666     O1669   2.390       .  S
Zr1666     O1670   2.383       .  S
O1667      H1704   0.990       .  S
O1668      H1699   0.990       .  S
O1668      H1713   0.990       .  S
O1670      H1696   0.965       .  S
O1671     Zr1681   2.374       .  S
O1672     Zr1681   2.384       .  S
O1672      H1697   0.966       .  S
C1673      C2366   1.487       .  S
C1674      C2446   1.482       .  S
C1675      C3246   1.485       .  S
O1676      H1712   0.990       .  S
O1677      C1679   1.282       .  A
O1678      C1679   1.287       .  A
C1679      C2326   1.470       .  S
O1680     Zr1681   2.438       .  S
O1680      H1709   0.990       .  S
Zr1681     O1684   2.439       .  S
Zr1681     O1685   2.438       .  S
Zr1681     O1686   2.391       .  S
O1682      C1687   1.290       .  A
O1683      H1700   0.990       .  S
O1683      H1715   0.990       .  S
O1684      H1701   0.990       .  S
O1685      H1705   0.990       .  S
O1685      H1714   0.990       .  S
O1686      C1687   1.277       .  A
C1687      C2377   1.491       .  S
O1688      H1707   0.990       .  S
O1688      H1711   0.991       .  S
O1689      H1703   0.990       .  S
O1689      H1710   0.990       .  S
O1690      C1694   1.287       .  A
O1691      C1694   1.282       .  A
O1692      H1702   0.990       .  S
O1693      H1706   0.990       .  S
C1694      C2337   1.491       .  S
Zr1717     O1718   2.443       .  S
Zr1717     O1719   2.445       .  S
Zr1717     O1720   2.438       .  S
Zr1717     O1723   2.450       .  S
Zr1717     O1725   2.387       .  S
Zr1717     O1726   2.385       .  S
Zr1717     O1727   2.417       .  S
Zr1717     O1728   2.398       .  S
O1718      H1774   0.990       .  S
O1718      H1782   0.991       .  S
O1719      C1739   1.285       .  A
O1720      C1741   1.283       .  A
O1721     Zr1731   2.404       .  S
O1721      C1740   1.280       .  A
O1722     Zr1730   2.435       .  S
O1722      C1741   1.284       .  A
O1723      C1740   1.287       .  A
O1724     Zr1732   2.405       .  S
O1724      C1739   1.280       .  A
O1725     Zr1730   2.397       .  S
O1725     Zr1732   2.387       .  S
O1726     Zr1731   2.381       .  S
O1726     Zr1732   2.378       .  S
O1726      H1761   0.966       .  S
O1727     Zr1730   2.397       .  S
O1727     Zr1747   2.393       .  S
O1727      H1764   0.964       .  S
O1728     Zr1731   2.383       .  S
O1728     Zr1747   2.387       .  S
Zr1729     O1754   2.442       .  S
Zr1729     O1748   2.450       .  S
Zr1729     O1756   2.465       .  S
Zr1729     O1744   2.447       .  S
Zr1729     O1735   2.405       .  S
Zr1729     O1736   2.417       .  S
Zr1729     O1737   2.383       .  S
Zr1729     O1738   2.380       .  S
Zr1730     O1749   2.435       .  S
Zr1730     O1742   2.436       .  S
Zr1730     O1743   2.422       .  S
Zr1730     O1736   2.402       .  S
Zr1730     O1737   2.398       .  S
Zr1731     O1733   2.435       .  S
Zr1731     O1755   2.439       .  S
Zr1731     O1757   2.399       .  S
Zr1731     O1735   2.391       .  S
Zr1731     O1738   2.388       .  S
Zr1732     O1758   2.435       .  S
Zr1732     O1759   2.437       .  S
Zr1732     O1734   2.437       .  S
Zr1732     O1735   2.392       .  S
Zr1732     O1736   2.384       .  S
O1733      H1770   0.990       .  S
O1734      H1765   0.990       .  S
O1734      H1779   0.990       .  S
O1736      H1762   0.965       .  S
O1737     Zr1747   2.379       .  S
O1738     Zr1747   2.378       .  S
O1738      H1763   0.966       .  S
C1739      C2286   1.484       .  S
C1740      C2606   1.486       .  S
C1741      C3166   1.477       .  S
O1742      H1778   0.990       .  S
O1743      C1745   1.283       .  A
O1744      C1745   1.288       .  A
C1745      C2297   1.488       .  S
O1746     Zr1747   2.438       .  S
O1746      H1775   0.990       .  S
Zr1747     O1750   2.439       .  S
Zr1747     O1751   2.438       .  S
Zr1747     O1752   2.411       .  S
O1748      C1753   1.286       .  A
O1749      H1766   0.990       .  S
O1749      H1781   0.990       .  S
O1750      H1767   0.990       .  S
O1751      H1771   0.990       .  S
O1751      H1780   0.990       .  S
O1752      C1753   1.280       .  A
C1753      C2257   1.474       .  S
O1754      H1773   0.990       .  S
O1754      H1777   0.990       .  S
O1755      H1769   0.990       .  S
O1755      H1776   0.990       .  S
O1756      C1760   1.290       .  A
O1757      C1760   1.278       .  A
O1758      H1768   0.990       .  S
O1759      H1772   0.990       .  S
C1760      C2346   1.490       .  S
Zr1783     O1784   2.442       .  S
Zr1783     O1785   2.446       .  S
Zr1783     O1786   2.452       .  S
Zr1783     O1789   2.443       .  S
Zr1783     O1791   2.382       .  S
Zr1783     O1792   2.391       .  S
Zr1783     O1793   2.412       .  S
Zr1783     O1794   2.400       .  S
O1784      H1840   0.990       .  S
O1784      H1848   0.991       .  S
O1785      C1805   1.286       .  A
O1786      C1807   1.285       .  A
O1787     Zr1797   2.408       .  S
O1787      C1806   1.281       .  A
O1788     Zr1796   2.433       .  S
O1788      C1807   1.284       .  A
O1789      C1806   1.286       .  A
O1790     Zr1798   2.404       .  S
O1790      C1805   1.278       .  A
O1791     Zr1796   2.399       .  S
O1791     Zr1798   2.383       .  S
O1792     Zr1797   2.396       .  S
O1792     Zr1798   2.379       .  S
O1792      H1827   0.966       .  S
O1793     Zr1796   2.399       .  S
O1793     Zr1813   2.395       .  S
O1793      H1830   0.965       .  S
O1794     Zr1797   2.389       .  S
O1794     Zr1813   2.386       .  S
Zr1795     O1820   2.439       .  S
Zr1795     O1814   2.440       .  S
Zr1795     O1822   2.452       .  S
Zr1795     O1810   2.432       .  S
Zr1795     O1801   2.406       .  S
Zr1795     O1802   2.410       .  S
Zr1795     O1803   2.383       .  S
Zr1795     O1804   2.381       .  S
Zr1796     O1815   2.436       .  S
Zr1796     O1808   2.436       .  S
Zr1796     O1809   2.431       .  S
Zr1796     O1802   2.401       .  S
Zr1796     O1803   2.396       .  S
Zr1797     O1799   2.436       .  S
Zr1797     O1821   2.439       .  S
Zr1797     O1823   2.429       .  S
Zr1797     O1801   2.394       .  S
Zr1797     O1804   2.391       .  S
Zr1798     O1824   2.434       .  S
Zr1798     O1825   2.436       .  S
Zr1798     O1800   2.438       .  S
Zr1798     O1801   2.395       .  S
Zr1798     O1802   2.381       .  S
O1799      H1836   0.990       .  S
O1800      H1831   0.990       .  S
O1800      H1845   0.990       .  S
O1802      H1828   0.965       .  S
O1803     Zr1813   2.377       .  S
O1804     Zr1813   2.381       .  S
O1804      H1829   0.966       .  S
C1805      C2266   1.488       .  S
C1806      C2526   1.479       .  S
C1807      C3126   1.484       .  S
O1808      H1844   0.990       .  S
O1809      C1811   1.285       .  A
O1810      C1811   1.285       .  A
C1811      C2237   1.485       .  S
O1812     Zr1813   2.438       .  S
O1812      H1841   0.991       .  S
Zr1813     O1816   2.436       .  S
Zr1813     O1817   2.440       .  S
Zr1813     O1818   2.410       .  S
O1814      C1819   1.284   1_565  A
O1815      H1832   0.990       .  S
O1815      H1847   0.990       .  S
O1816      H1833   0.990       .  S
O1817      H1837   0.990       .  S
O1817      H1846   0.990       .  S
O1818      C1819   1.280   1_565  A
C1819      C2277   1.479       .  S
O1820      H1839   0.990       .  S
O1820      H1843   0.990       .  S
O1821      H1835   0.989       .  S
O1821      H1842   0.990       .  S
O1822      C1826   1.287       .  A
O1823      C1826   1.284       .  A
O1824      H1834   0.990       .  S
O1825      H1838   0.990       .  S
C1826      C2426   1.489       .  S
Zr1849     O1850   2.442       .  S
Zr1849     O1851   2.447       .  S
Zr1849     O1852   2.449       .  S
Zr1849     O1855   2.442       .  S
Zr1849     O1857   2.381       .  S
Zr1849     O1858   2.388       .  S
Zr1849     O1859   2.411       .  S
Zr1849     O1860   2.401       .  S
O1850      H1906   0.990       .  S
O1850      H1914   0.990       .  S
O1851      C1871   1.285       .  A
O1852      C1873   1.286       .  A
O1853     Zr1863   2.410       .  S
O1853      C1872   1.281       .  A
O1854     Zr1862   2.422       .  S
O1854      C1873   1.283       .  A
O1855      C1872   1.286       .  A
O1856     Zr1864   2.401       .  S
O1856      C1871   1.278       .  A
O1857     Zr1862   2.395       .  S
O1857     Zr1864   2.382       .  S
O1858     Zr1863   2.390       .  S
O1858     Zr1864   2.375       .  S
O1858      H1893   0.966       .  S
O1859     Zr1862   2.401       .  S
O1859     Zr1879   2.387   1_545  S
O1859      H1896   0.964       .  S
O1860     Zr1863   2.391       .  S
O1860     Zr1879   2.386   1_545  S
Zr1861     O1886   2.441       .  S
Zr1861     O1880   2.448       .  S
Zr1861     O1888   2.454       .  S
Zr1861     O1876   2.454       .  S
Zr1861     O1867   2.407   1_565  S
Zr1861     O1868   2.408   1_565  S
Zr1861     O1869   2.384       .  S
Zr1861     O1870   2.388       .  S
Zr1862     O1881   2.435       .  S
Zr1862     O1874   2.433       .  S
Zr1862     O1875   2.419       .  S
Zr1862     O1868   2.393       .  S
Zr1862     O1869   2.395   1_545  S
Zr1863     O1865   2.437       .  S
Zr1863     O1887   2.437       .  S
Zr1863     O1889   2.418       .  S
Zr1863     O1867   2.389       .  S
Zr1863     O1870   2.392   1_545  S
Zr1864     O1890   2.435       .  S
Zr1864     O1891   2.435       .  S
Zr1864     O1866   2.436       .  S
Zr1864     O1867   2.389       .  S
Zr1864     O1868   2.379       .  S
O1865      H1902   0.990       .  S
O1866      H1897   0.990       .  S
O1866      H1911   0.990       .  S
O1868      H1894   0.965       .  S
O1869     Zr1879   2.381       .  S
O1870     Zr1879   2.380       .  S
O1870      H1895   0.966       .  S
C1871      C2206   1.481       .  S
C1872      C2857   1.482       .  S
C1873      C3046   1.481       .  S
O1874      H1910   0.990       .  S
O1875      C1877   1.283   1_545  A
O1876      C1877   1.289       .  A
C1877      C2246   1.490       .  S
O1878     Zr1879   2.439       .  S
O1878      H1907   0.991       .  S
Zr1879     O1882   2.439       .  S
Zr1879     O1883   2.441       .  S
Zr1879     O1884   2.395       .  S
O1880      C1885   1.286       .  A
O1881      H1898   0.990       .  S
O1881      H1913   0.990       .  S
O1882      H1899   0.990       .  S
O1883      H1903   0.990       .  S
O1883      H1912   0.990       .  S
O1884      C1885   1.277       .  A
C1885      C2186   1.480       .  S
O1886      H1905   0.990       .  S
O1886      H1909   0.991       .  S
O1887      H1901   0.990       .  S
O1887      H1908   0.990       .  S
O1888      C1892   1.287   1_565  A
O1889      C1892   1.283       .  A
O1890      H1900   0.990       .  S
O1891      H1904   0.990       .  S
C1892      C2217   1.492   1_545  S
Zr1915     O1916   2.443       .  S
Zr1915     O1917   2.439       .  S
Zr1915     O1918   2.453       .  S
Zr1915     O1921   2.448       .  S
Zr1915     O1923   2.381       .  S
Zr1915     O1924   2.390       .  S
Zr1915     O1925   2.415       .  S
Zr1915     O1926   2.400       .  S
O1916      H1972   0.991       .  S
O1916      H1980   0.990       .  S
O1917      C1937   1.283       .  A
O1918      C1939   1.286       .  A
O1919     Zr1929   2.419       .  S
O1919      C1938   1.283       .  A
O1920     Zr1928   2.426       .  S
O1920      C1939   1.284       .  A
O1921      C1938   1.287       .  A
O1922     Zr1930   2.401       .  S
O1922      C1937   1.277       .  A
O1923     Zr1928   2.394       .  S
O1923     Zr1930   2.386       .  S
O1924     Zr1929   2.392       .  S
O1924     Zr1930   2.382       .  S
O1924      H1959   0.966       .  S
O1925     Zr1928   2.394       .  S
O1925     Zr1945   2.388       .  S
O1925      H1962   0.964       .  S
O1926     Zr1929   2.385       .  S
O1926     Zr1945   2.386       .  S
Zr1927     O1952   2.441       .  S
Zr1927     O1946   2.444       .  S
Zr1927     O1954   2.437       .  S
Zr1927     O1942   2.442       .  S
Zr1927     O1933   2.400       .  S
Zr1927     O1934   2.401       .  S
Zr1927     O1935   2.375       .  S
Zr1927     O1936   2.387       .  S
Zr1928     O1947   2.436       .  S
Zr1928     O1940   2.435       .  S
Zr1928     O1941   2.419       .  S
Zr1928     O1934   2.390       .  S
Zr1928     O1935   2.388       .  S
Zr1929     O1931   2.436       .  S
Zr1929     O1953   2.437       .  S
Zr1929     O1955   2.423       .  S
Zr1929     O1933   2.390       .  S
Zr1929     O1936   2.392       .  S
Zr1930     O1956   2.437       .  S
Zr1930     O1957   2.437       .  S
Zr1930     O1932   2.438       .  S
Zr1930     O1933   2.385       .  S
Zr1930     O1934   2.388       .  S
O1931      H1968   0.990       .  S
O1932      H1963   0.990       .  S
O1932      H1977   0.990       .  S
O1934      H1960   0.966       .  S
O1935     Zr1945   2.377       .  S
O1936     Zr1945   2.378       .  S
O1936      H1961   0.966       .  S
C1937      C2177   1.473       .  S
C1938      C2766   1.484       .  S
C1939      C3006   1.489       .  S
O1940      H1976   0.990       .  S
O1941      C1943   1.282       .  A
O1942      C1943   1.287       .  A
C1943      C2306   1.489       .  S
O1944     Zr1945   2.439       .  S
O1944      H1973   0.990       .  S
Zr1945     O1948   2.436       .  S
Zr1945     O1949   2.438       .  S
Zr1945     O1950   2.417       .  S
O1946      C1951   1.287       .  A
O1947      H1964   0.990       .  S
O1947      H1979   0.990       .  S
O1948      H1965   0.990       .  S
O1949      H1969   0.990       .  S
O1949      H1978   0.990       .  S
O1950      C1951   1.282       .  A
C1951      C2197   1.487       .  S
O1952      H1971   0.990       .  S
O1952      H1975   0.991       .  S
O1953      H1967   0.990       .  S
O1953      H1974   0.990       .  S
O1954      C1958   1.285       .  A
O1955      C1958   1.283       .  A
O1956      H1966   0.990       .  S
O1957      H1970   0.990       .  S
C1958      C2166   1.484       .  S
Zr1981     O1982   2.442       .  S
Zr1981     O1983   2.448       .  S
Zr1981     O1984   2.455       .  S
Zr1981     O1987   2.458       .  S
Zr1981     O1989   2.384       .  S
Zr1981     O1990   2.391       .  S
Zr1981     O1991   2.414       .  S
Zr1981     O1992   2.397       .  S
O1982      H2038   0.990       .  S
O1982      H2046   0.991       .  S
O1983      C2003   1.285       .  A
O1984      C2005   1.287       .  A
O1985     Zr1995   2.429       .  S
O1985      C2004   1.286       .  A
O1986     Zr1994   2.414       .  S
O1986      C2005   1.282       .  A
O1987      C2004   1.289       .  A
O1988     Zr1996   2.399       .  S
O1988      C2003   1.278       .  A
O1989     Zr1994   2.399       .  S
O1989     Zr1996   2.378       .  S
O1990     Zr1995   2.393       .  S
O1990     Zr1996   2.384       .  S
O1990      H2025   0.966       .  S
O1991     Zr1994   2.398       .  S
O1991     Zr2011   2.386       .  S
O1991      H2028   0.965       .  S
O1992     Zr1995   2.384       .  S
O1992     Zr2011   2.377       .  S
Zr1993     O2018   2.442       .  S
Zr1993     O2012   2.446       .  S
Zr1993     O2020   2.442       .  S
Zr1993     O2008   2.445       .  S
Zr1993     O1999   2.403       .  S
Zr1993     O2000   2.409       .  S
Zr1993     O2001   2.381       .  S
Zr1993     O2002   2.384       .  S
Zr1994     O2013   2.436       .  S
Zr1994     O2006   2.435       .  S
Zr1994     O2007   2.424       .  S
Zr1994     O2000   2.399       .  S
Zr1994     O2001   2.390       .  S
Zr1995     O1997   2.437       .  S
Zr1995     O2019   2.436       .  S
Zr1995     O2021   2.429       .  S
Zr1995     O1999   2.389       .  S
Zr1995     O2002   2.392       .  S
Zr1996     O2022   2.434       .  S
Zr1996     O2023   2.435       .  S
Zr1996     O1998   2.436       .  S
Zr1996     O1999   2.390       .  S
Zr1996     O2000   2.385       .  S
O1997      H2034   0.990       .  S
O1998      H2029   0.990       .  S
O1998      H2043   0.990       .  S
O2000      H2026   0.965       .  S
O2001     Zr2011   2.377       .  S
O2002     Zr2011   2.380       .  S
O2002      H2027   0.966       .  S
C2003      C2146   1.478       .  S
C2004      C2717   1.491       .  S
C2005      C2946   1.488       .  S
O2006      H2042   0.990       .  S
O2007      C2009   1.282       .  A
O2008      C2009   1.286       .  A
C2009      C2317   1.475       .  S
O2010     Zr2011   2.433       .  S
O2010      H2039   0.990       .  S
Zr2011     O2014   2.435       .  S
Zr2011     O2015   2.437       .  S
Zr2011     O2016   2.400       .  S
O2012      C2017   1.286       .  A
O2013      H2030   0.990       .  S
O2013      H2045   0.990       .  S
O2014      H2031   0.990       .  S
O2015      H2035   0.990       .  S
O2015      H2044   0.990       .  S
O2016      C2017   1.279       .  A
C2017      C2126   1.485       .  S
O2018      H2037   0.990       .  S
O2018      H2041   0.990       .  S
O2019      H2033   0.990       .  S
O2019      H2040   0.990       .  S
O2020      C2024   1.286       .  A
O2021      C2024   1.285       .  A
O2022      H2032   0.990       .  S
O2023      H2036   0.990       .  S
C2024      C2157   1.491       .  S
Zr2047     O2048   2.441       .  S
Zr2047     O2049   2.448       .  S
Zr2047     O2050   2.460       .  S
Zr2047     O2053   2.464       .  S
Zr2047     O2055   2.388       .  S
Zr2047     O2056   2.388       .  S
Zr2047     O2057   2.414       .  S
Zr2047     O2058   2.396       .  S
O2048      H2104   0.990       .  S
O2048      H2112   0.990       .  S
O2049      C2069   1.286       .  A
O2050      C2071   1.288       .  A
O2051     Zr2061   2.415       .  S
O2051      C2070   1.282       .  A
O2052     Zr2060   2.433       .  S
O2052      C2071   1.285       .  A
O2053      C2070   1.290       .  A
O2054     Zr2062   2.398       .  S
O2054      C2069   1.277       .  A
O2055     Zr2060   2.395       .  S
O2055     Zr2062   2.382       .  S
O2056     Zr2061   2.392       .  S
O2056     Zr2062   2.384       .  S
O2056      H2091   0.966       .  S
O2057     Zr2060   2.400       .  S
O2057     Zr2077   2.389       .  S
O2057      H2094   0.964       .  S
O2058     Zr2061   2.385       .  S
O2058     Zr2077   2.385       .  S
Zr2059     O2084   2.440       .  S
Zr2059     O2078   2.452       .  S
Zr2059     O2086   2.454       .  S
Zr2059     O2074   2.451       .  S
Zr2059     O2065   2.400       .  S
Zr2059     O2066   2.418       .  S
Zr2059     O2067   2.382       .  S
Zr2059     O2068   2.382       .  S
Zr2060     O2079   2.435       .  S
Zr2060     O2072   2.437       .  S
Zr2060     O2073   2.428       .  S
Zr2060     O2066   2.406       .  S
Zr2060     O2067   2.398       .  S
Zr2061     O2063   2.434       .  S
Zr2061     O2085   2.439       .  S
Zr2061     O2087   2.416       .  S
Zr2061     O2065   2.385       .  S
Zr2061     O2068   2.393       .  S
Zr2062     O2088   2.438       .  S
Zr2062     O2089   2.435       .  S
Zr2062     O2064   2.439       .  S
Zr2062     O2065   2.388       .  S
Zr2062     O2066   2.389       .  S
O2063      H2100   0.990       .  S
O2064      H2095   0.990       .  S
O2064      H2109   0.990       .  S
O2066      H2092   0.965       .  S
O2067     Zr2077   2.380       .  S
O2068     Zr2077   2.381       .  S
O2068      H2093   0.966       .  S
C2069      C2117   1.474       .  S
C2070      C2646   1.489       .  S
C2071      C2926   1.488       .  S
O2072      H2108   0.990       .  S
O2073      C2075   1.285       .  A
O2074      C2075   1.287       .  A
C2075      C2397   1.490       .  S
O2076     Zr2077   2.438       .  S
O2076      H2105   0.990       .  S
Zr2077     O2080   2.438       .  S
Zr2077     O2081   2.438       .  S
Zr2077     O2082   2.405       .  S
O2078      C2083   1.287   1_565  A
O2079      H2096   0.990       .  S
O2079      H2111   0.990       .  S
O2080      H2097   0.990       .  S
O2081      H2101   0.990       .  S
O2081      H2110   0.990       .  S
O2082      C2083   1.279   1_565  A
C2083      C2137   1.487       .  S
O2084      H2103   0.990       .  S
O2084      H2107   0.990       .  S
O2085      H2099   0.990       .  S
O2085      H2106   0.990       .  S
O2086      C2090   1.288       .  A
O2087      C2090   1.281       .  A
O2088      H2098   0.990       .  S
O2089      H2102   0.990       .  S
C2090      C2226   1.490       .  S
C2113      C2114   1.402       .  A
C2113      C2118   1.396       .  A
C2113      H2123   1.083       .  S
C2114      C2119   1.479       .  S
C2114      C2115   1.408       .  A
C2115      C2116   1.396       .  A
C2115      F2120   1.358       .  S
C2116      C2117   1.401       .  A
C2116      H2121   1.083       .  S
C2117      C2118   1.410       .  A
C2118      F2122   1.358       .  S
C2119      C2124   1.402       .  A
C2119      C2128   1.406       .  A
C2124      C2125   1.390       .  A
C2124      F2129   1.358       .  S
C2125      C2126   1.408       .  A
C2125      H2130   1.083       .  S
C2126      C2127   1.410       .  A
C2127      C2128   1.402       .  A
C2127      F2131   1.357       .  S
C2128      H2132   1.083       .  S
C2133      C2134   1.404       .  A
C2133      C2138   1.398       .  A
C2133      H2143   1.083       .  S
C2134      C2139   1.481       .  S
C2134      C2135   1.403       .  A
C2135      C2136   1.398       .  A
C2135      F2140   1.358       .  S
C2136      C2137   1.411       .  A
C2136      H2141   1.083       .  S
C2137      C2138   1.409       .  A
C2138      F2142   1.357       .  S
C2139      C2144   1.404       .  A
C2139      C2148   1.406       .  A
C2144      C2145   1.395       .  A
C2144      F2149   1.358       .  S
C2145      C2146   1.406       .  A
C2145      H2150   1.083       .  S
C2146      C2147   1.407       .  A
C2147      C2148   1.401       .  A
C2147      F2151   1.357       .  S
C2148      H2152   1.083       .  S
C2153      C2154   1.403       .  A
C2153      C2158   1.401       .  A
C2153      H2163   1.083       .  S
C2154      C2159   1.481       .  S
C2154      C2155   1.404       .  A
C2155      C2156   1.396       .  A
C2155      F2160   1.358       .  S
C2156      C2157   1.409       .  A
C2156      H2161   1.083       .  S
C2157      C2158   1.413       .  A
C2158      F2162   1.357       .  S
C2159      C2164   1.405       .  A
C2159      C2168   1.403       .  A
C2164      C2165   1.399       .  A
C2164      F2169   1.357       .  S
C2165      C2166   1.408       .  A
C2165      H2170   1.083       .  S
C2166      C2167   1.410       .  A
C2167      C2168   1.396       .  A
C2167      F2171   1.358       .  S
C2168      H2172   1.083       .  S
C2173      C2174   1.404       .  A
C2173      C2178   1.396       .  A
C2173      H2183   1.083       .  S
C2174      C2179   1.474       .  S
C2174      C2175   1.402       .  A
C2175      C2176   1.395       .  A
C2175      F2180   1.358       .  S
C2176      C2177   1.406       .  A
C2176      H2181   1.083       .  S
C2177      C2178   1.407       .  A
C2178      F2182   1.358       .  S
C2179      C2184   1.401       .  A
C2179      C2188   1.405       .  A
C2184      C2185   1.391       .  A
C2184      F2189   1.358       .  S
C2185      C2186   1.409       .  A
C2185      H2190   1.083       .  S
C2186      C2187   1.408       .  A
C2187      C2188   1.399       .  A
C2187      F2191   1.357       .  S
C2188      H2192   1.083       .  S
C2193      C2194   1.406       .  A
C2193      C2198   1.399       .  A
C2193      H2203   1.083       .  S
C2194      C2199   1.486       .  S
C2194      C2195   1.406       .  A
C2195      C2196   1.398       .  A
C2195      F2200   1.358       .  S
C2196      C2197   1.409       .  A
C2196      H2201   1.083       .  S
C2197      C2198   1.409       .  A
C2198      F2202   1.357       .  S
C2199      C2204   1.406       .  A
C2199      C2208   1.408       .  A
C2204      C2205   1.394       .  A
C2204      F2209   1.358       .  S
C2205      C2206   1.406       .  A
C2205      H2210   1.083       .  S
C2206      C2207   1.407       .  A
C2207      C2208   1.402       .  A
C2207      F2211   1.357       .  S
C2208      H2212   1.083       .  S
C2213      C2214   1.406       .  A
C2213      C2218   1.403       .  A
C2213      H2223   1.083       .  S
C2214      C2219   1.489       .  S
C2214      C2215   1.406   1_565  A
C2215      C2216   1.396       .  A
C2215      F2220   1.358       .  S
C2216      C2217   1.408   1_545  A
C2216      H2221   1.083       .  S
C2217      C2218   1.412       .  A
C2218      F2222   1.356       .  S
C2219      C2224   1.409       .  A
C2219      C2228   1.403       .  A
C2224      C2225   1.404       .  A
C2224      F2229   1.357       .  S
C2225      C2226   1.408       .  A
C2225      H2230   1.083       .  S
C2226      C2227   1.412       .  A
C2227      C2228   1.396       .  A
C2227      F2231   1.358       .  S
C2228      H2232   1.083       .  S
C2233      C2234   1.404       .  A
C2233      C2238   1.398       .  A
C2233      H2243   1.083       .  S
C2234      C2239   1.483   1_655  S
C2234      C2235   1.405       .  A
C2235      C2236   1.397       .  A
C2235      F2240   1.357       .  S
C2236      C2237   1.408       .  A
C2236      H2241   1.083       .  S
C2237      C2238   1.410       .  A
C2238      F2242   1.358       .  S
C2239      C2244   1.408       .  A
C2239      C2248   1.400       .  A
C2244      C2245   1.401       .  A
C2244      F2249   1.357       .  S
C2245      C2246   1.408       .  A
C2245      H2250   1.083       .  S
C2246      C2247   1.414   1_565  A
C2247      C2248   1.395   1_545  A
C2247      F2251   1.357       .  S
C2248      H2252   1.084   1_565  S
C2253      C2254   1.405       .  A
C2253      C2258   1.398       .  A
C2253      H2263   1.083       .  S
C2254      C2259   1.486       .  S
C2254      C2255   1.409       .  A
C2255      C2256   1.399       .  A
C2255      F2260   1.357       .  S
C2256      C2257   1.402       .  A
C2256      H2261   1.083       .  S
C2257      C2258   1.406       .  A
C2258      F2262   1.358       .  S
C2259      C2264   1.408       .  A
C2259      C2268   1.403       .  A
C2264      C2265   1.399       .  A
C2264      F2269   1.357       .  S
C2265      C2266   1.407       .  A
C2265      H2270   1.083       .  S
C2266      C2267   1.414       .  A
C2267      C2268   1.397       .  A
C2267      F2271   1.358       .  S
C2268      H2272   1.083       .  S
C2273      C2274   1.405       .  A
C2273      C2278   1.398       .  A
C2273      H2283   1.083       .  S
C2274      C2279   1.481       .  S
C2274      C2275   1.404       .  A
C2275      C2276   1.397       .  A
C2275      F2280   1.358       .  S
C2276      C2277   1.407       .  A
C2276      H2281   1.083       .  S
C2277      C2278   1.407       .  A
C2278      F2282   1.357       .  S
C2279      C2284   1.403       .  A
C2279      C2288   1.405       .  A
C2284      C2285   1.394       .  A
C2284      F2289   1.358       .  S
C2285      C2286   1.408       .  A
C2285      H2290   1.083       .  S
C2286      C2287   1.409       .  A
C2287      C2288   1.400       .  A
C2287      F2291   1.357       .  S
C2288      H2292   1.083       .  S
C2293      C2294   1.401       .  A
C2293      C2298   1.399       .  A
C2293      H2303   1.083       .  S
C2294      C2299   1.480   1_655  S
C2294      C2295   1.405       .  A
C2295      C2296   1.397       .  A
C2295      F2300   1.357       .  S
C2296      C2297   1.407       .  A
C2296      H2301   1.083       .  S
C2297      C2298   1.414       .  A
C2298      F2302   1.358       .  S
C2299      C2304   1.405       .  A
C2299      C2308   1.401       .  A
C2304      C2305   1.399       .  A
C2304      F2309   1.357       .  S
C2305      C2306   1.408       .  A
C2305      H2310   1.083       .  S
C2306      C2307   1.414       .  A
C2307      C2308   1.398       .  A
C2307      F2311   1.358       .  S
C2308      H2312   1.083       .  S
C2313      C2314   1.404       .  A
C2313      C2318   1.393       .  A
C2313      H2323   1.083       .  S
C2314      C2319   1.487   1_455  S
C2314      C2315   1.410       .  A
C2315      C2316   1.402       .  A
C2315      F2320   1.357       .  S
C2316      C2317   1.404       .  A
C2316      H2321   1.083       .  S
C2317      C2318   1.404       .  A
C2318      F2322   1.357       .  S
C2319      C2324   1.409       .  A
C2319      C2328   1.407       .  A
C2324      C2325   1.395       .  A
C2324      F2329   1.358       .  S
C2325      C2326   1.401       .  A
C2325      H2330   1.084       .  S
C2326      C2327   1.404       .  A
C2327      C2328   1.400       .  A
C2327      F2331   1.357       .  S
C2328      H2332   1.083       .  S
C2333      C2334   1.406       .  A
C2333      C2338   1.400       .  A
C2333      H2343   1.083       .  S
C2334      C2339   1.491       .  S
C2334      C2335   1.409       .  A
C2335      C2336   1.397       .  A
C2335      F2340   1.358       .  S
C2336      C2337   1.408       .  A
C2336      H2341   1.083       .  S
C2337      C2338   1.411       .  A
C2338      F2342   1.356       .  S
C2339      C2344   1.410       .  A
C2339      C2348   1.403       .  A
C2344      C2345   1.401       .  A
C2344      F2349   1.357       .  S
C2345      C2346   1.405       .  A
C2345      H2350   1.083       .  S
C2346      C2347   1.415       .  A
C2347      C2348   1.396       .  A
C2347      F2351   1.358       .  S
C2348      H2352   1.083       .  S
C2353      C2354   1.402       .  A
C2353      C2358   1.396       .  A
C2353      H2363   1.083       .  S
C2354      C2359   1.479       .  S
C2354      C2355   1.408       .  A
C2355      C2356   1.398       .  A
C2355      F2360   1.357       .  S
C2356      C2357   1.401       .  A
C2356      H2361   1.083       .  S
C2357      C2358   1.409       .  A
C2358      F2362   1.358       .  S
C2359      C2364   1.408       .  A
C2359      C2368   1.399       .  A
C2364      C2365   1.402       .  A
C2364      F2369   1.358       .  S
C2365      C2366   1.407       .  A
C2365      H2370   1.083       .  S
C2366      C2367   1.414       .  A
C2367      C2368   1.392       .  A
C2367      F2371   1.357       .  S
C2368      H2372   1.083       .  S
C2373      C2374   1.408       .  A
C2373      C2378   1.403       .  A
C2373      H2383   1.083       .  S
C2374      C2379   1.485       .  S
C2374      C2375   1.402       .  A
C2375      C2376   1.394       .  A
C2375      F2380   1.358       .  S
C2376      C2377   1.412       .  A
C2376      H2381   1.083       .  S
C2377      C2378   1.408       .  A
C2378      F2382   1.357       .  S
C2379      C2384   1.405       .  A
C2379      C2388   1.409       .  A
C2384      C2385   1.396       .  A
C2384      F2389   1.357       .  S
C2385      C2386   1.404       .  A
C2385      H2390   1.084       .  S
C2386      C2387   1.404       .  A
C2387      C2388   1.401       .  A
C2387      F2391   1.358       .  S
C2388      H2392   1.083       .  S
C2393      C2394   1.402       .  A
C2393      C2398   1.399       .  A
C2393      H2403   1.083   1_565  S
C2394      C2399   1.480   1_455  S
C2394      C2395   1.404       .  A
C2395      C2396   1.399       .  A
C2395      F2400   1.358       .  S
C2396      C2397   1.410       .  A
C2396      H2401   1.083       .  S
C2397      C2398   1.411       .  A
C2398      F2402   1.357       .  S
C2399      C2404   1.402       .  A
C2399      C2408   1.402       .  A
C2404      C2405   1.398       .  A
C2404      F2409   1.357       .  S
C2405      C2406   1.410       .  A
C2405      H2410   1.083   1_565  S
C2406      C2407   1.413       .  A
C2407      C2408   1.400       .  A
C2407      F2411   1.356       .  S
C2408      H2412   1.083       .  S
C2413      C2414   1.402       .  A
C2413      C2418   1.397   1_565  A
C2413      H2423   1.083   1_565  S
C2414      C2419   1.491       .  S
C2414      C2415   1.409       .  A
C2415      C2416   1.404       .  A
C2415      F2420   1.357       .  S
C2416      C2417   1.409       .  A
C2416      H2421   1.083       .  S
C2417      C2418   1.412   1_565  A
C2418      F2422   1.357       .  S
C2419      C2424   1.409       .  A
C2419      C2428   1.404       .  A
C2424      C2425   1.401       .  A
C2424      F2429   1.358       .  S
C2425      C2426   1.407       .  A
C2425      H2430   1.083       .  S
C2426      C2427   1.410       .  A
C2427      C2428   1.401       .  A
C2427      F2431   1.356       .  S
C2428      H2432   1.083       .  S
C2433      C2434   1.402       .  A
C2433      C2438   1.395       .  A
C2433      H2443   1.083       .  S
C2434      C2439   1.480       .  S
C2434      C2435   1.405       .  A
C2435      C2436   1.400       .  A
C2435      F2440   1.357       .  S
C2436      C2437   1.408       .  A
C2436      H2441   1.083       .  S
C2437      C2438   1.411       .  A
C2438      F2442   1.358       .  S
C2439      C2444   1.403       .  A
C2439      C2448   1.405       .  A
C2444      C2445   1.394       .  A
C2444      F2449   1.358       .  S
C2445      C2446   1.408       .  A
C2445      H2450   1.083       .  S
C2446      C2447   1.409       .  A
C2447      C2448   1.401       .  A
C2447      F2451   1.357       .  S
C2448      H2452   1.083       .  S
C2453      C2454   1.409       .  A
C2453      C2458   1.403       .  A
C2453      H2463   1.083       .  S
C2454      C2459   1.487       .  S
C2454      C2455   1.404       .  A
C2455      C2456   1.393       .  A
C2455      F2460   1.357       .  S
C2456      C2457   1.409       .  A
C2456      H2461   1.083       .  S
C2457      C2458   1.409       .  A
C2458      F2462   1.357       .  S
C2459      C2464   1.405       .  A
C2459      C2468   1.408       .  A
C2464      C2465   1.396       .  A
C2464      F2469   1.358       .  S
C2465      C2466   1.409       .  A
C2465      H2470   1.083       .  S
C2466      C2467   1.406       .  A
C2467      C2468   1.400       .  A
C2467      F2471   1.357       .  S
C2468      H2472   1.083       .  S
C2473      C2474   1.406       .  A
C2473      C2478   1.400       .  A
C2473      H2483   1.083       .  S
C2474      C2479   1.478       .  S
C2474      C2475   1.402       .  A
C2475      C2476   1.395       .  A
C2475      F2480   1.358       .  S
C2476      C2477   1.409       .  A
C2476      H2481   1.083       .  S
C2477      C2478   1.408       .  A
C2478      F2482   1.357       .  S
C2479      C2484   1.402       .  A
C2479      C2488   1.407       .  A
C2484      C2485   1.392       .  A
C2484      F2489   1.357       .  S
C2485      C2486   1.405       .  A
C2485      H2490   1.083       .  S
C2486      C2487   1.407       .  A
C2487      C2488   1.401       .  A
C2487      F2491   1.358       .  S
C2488      H2492   1.083       .  S
C2493      C2494   1.406       .  A
C2493      C2498   1.400       .  A
C2493      H2503   1.083       .  S
C2494      C2499   1.482       .  S
C2494      C2495   1.406       .  A
C2495      C2496   1.391       .  A
C2495      F2500   1.358       .  S
C2496      C2497   1.405       .  A
C2496      H2501   1.083       .  S
C2497      C2498   1.408       .  A
C2498      F2502   1.358       .  S
C2499      C2504   1.408       .  A
C2499      C2508   1.402       .  A
C2504      C2505   1.402       .  A
C2504      F2509   1.357       .  S
C2505      C2506   1.407       .  A
C2505      H2510   1.083       .  S
C2506      C2507   1.411       .  A
C2507      C2508   1.393       .  A
C2507      F2511   1.358       .  S
C2508      H2512   1.083       .  S
C2513      C2514   1.404       .  A
C2513      C2518   1.398       .  A
C2513      H2523   1.083       .  S
C2514      C2519   1.479       .  S
C2514      C2515   1.405       .  A
C2515      C2516   1.391       .  A
C2515      F2520   1.358       .  S
C2516      C2517   1.406       .  A
C2516      H2521   1.083       .  S
C2517      C2518   1.410       .  A
C2518      F2522   1.357       .  S
C2519      C2524   1.407       .  A
C2519      C2528   1.402       .  A
C2524      C2525   1.400       .  A
C2524      F2529   1.358       .  S
C2525      C2526   1.407       .  A
C2525      H2530   1.083       .  S
C2526      C2527   1.409       .  A
C2527      C2528   1.391       .  A
C2527      F2531   1.358       .  S
C2528      H2532   1.083       .  S
C2533      C2534   1.401       .  A
C2533      C2538   1.395       .  A
C2533      H2543   1.084       .  S
C2534      C2539   1.487       .  S
C2534      C2535   1.407       .  A
C2535      C2536   1.407       .  A
C2535      F2540   1.357       .  S
C2536      C2537   1.412       .  A
C2536      H2541   1.083       .  S
C2537      C2538   1.415       .  A
C2538      F2542   1.357       .  S
C2539      C2544   1.405       .  A
C2539      C2548   1.405       .  A
C2544      C2545   1.395       .  A
C2544      F2549   1.358       .  S
C2545      C2546   1.409       .  A
C2545      H2550   1.083       .  S
C2546      C2547   1.413       .  A
C2547      C2548   1.405       .  A
C2547      F2551   1.357       .  S
C2548      H2552   1.083       .  S
C2553      C2554   1.401       .  A
C2553      C2558   1.395       .  A
C2553      H2563   1.083       .  S
C2554      C2559   1.481       .  S
C2554      C2555   1.409       .  A
C2555      C2556   1.398       .  A
C2555      F2560   1.358       .  S
C2556      C2557   1.405       .  A
C2556      H2561   1.083       .  S
C2557      C2558   1.412       .  A
C2558      F2562   1.358       .  S
C2559      C2564   1.410       .  A
C2559      C2568   1.401       .  A
C2564      C2565   1.401       .  A
C2564      F2569   1.358       .  S
C2565      C2566   1.404       .  A
C2565      H2570   1.083       .  S
C2566      C2567   1.410       .  A
C2567      C2568   1.392       .  A
C2567      F2571   1.358       .  S
C2568      H2572   1.083       .  S
C2573      C2574   1.399       .  A
C2573      C2578   1.392       .  A
C2573      H2583   1.083       .  S
C2574      C2579   1.485       .  S
C2574      C2575   1.409       .  A
C2575      C2576   1.403       .  A
C2575      F2580   1.358       .  S
C2576      C2577   1.407       .  A
C2576      H2581   1.083       .  S
C2577      C2578   1.414       .  A
C2578      F2582   1.357       .  S
C2579      C2584   1.410   1_545  A
C2579      C2588   1.405   1_545  A
C2584      C2585   1.397       .  A
C2584      F2589   1.357   1_565  S
C2585      C2586   1.402       .  A
C2585      H2590   1.084       .  S
C2586      C2587   1.406       .  A
C2587      C2588   1.397       .  A
C2587      F2591   1.358       .  S
C2588      H2592   1.083   1_565  S
C2593      C2594   1.401       .  A
C2593      C2598   1.399       .  A
C2593      H2603   1.083       .  S
C2594      C2599   1.475       .  S
C2594      C2595   1.403       .  A
C2595      C2596   1.394       .  A
C2595      F2600   1.358       .  S
C2596      C2597   1.407       .  A
C2596      H2601   1.083       .  S
C2597      C2598   1.413       .  A
C2598      F2602   1.357       .  S
C2599      C2604   1.405       .  A
C2599      C2608   1.397       .  A
C2604      C2605   1.402       .  A
C2604      F2609   1.357       .  S
C2605      C2606   1.409       .  A
C2605      H2610   1.083       .  S
C2606      C2607   1.414       .  A
C2607      C2608   1.391       .  A
C2607      F2611   1.357       .  S
C2608      H2612   1.084       .  S
C2613      C2614   1.404       .  A
C2613      C2618   1.400       .  A
C2613      H2623   1.083       .  S
C2614      C2619   1.490       .  S
C2614      C2615   1.408       .  A
C2615      C2616   1.403       .  A
C2615      F2620   1.357       .  S
C2616      C2617   1.408       .  A
C2616      H2621   1.083       .  S
C2617      C2618   1.411       .  A
C2618      F2622   1.357       .  S
C2619      C2624   1.407       .  A
C2619      C2628   1.405       .  A
C2624      C2625   1.400       .  A
C2624      F2629   1.358       .  S
C2625      C2626   1.410       .  A
C2625      H2630   1.083       .  S
C2626      C2627   1.411       .  A
C2627      C2628   1.402       .  A
C2627      F2631   1.356       .  S
C2628      H2632   1.083       .  S
C2633      C2634   1.404       .  A
C2633      C2638   1.403       .  A
C2633      H2643   1.083       .  S
C2634      C2639   1.481       .  S
C2634      C2635   1.404       .  A
C2635      C2636   1.396       .  A
C2635      F2640   1.358       .  S
C2636      C2637   1.408       .  A
C2636      H2641   1.083       .  S
C2637      C2638   1.410       .  A
C2638      F2642   1.357       .  S
C2639      C2644   1.406       .  A
C2639      C2648   1.400       .  A
C2644      C2645   1.404       .  A
C2644      F2649   1.357       .  S
C2645      C2646   1.408       .  A
C2645      H2650   1.083       .  S
C2646      C2647   1.413       .  A
C2647      C2648   1.395       .  A
C2647      F2651   1.357       .  S
C2648      H2652   1.084       .  S
C2653      C2654   1.401       .  A
C2653      C2658   1.400       .  A
C2653      H2663   1.083       .  S
C2654      C2659   1.475       .  S
C2654      C2655   1.400       .  A
C2655      C2656   1.399       .  A
C2655      F2660   1.358       .  S
C2656      C2657   1.412       .  A
C2656      H2661   1.083       .  S
C2657      C2658   1.412       .  A
C2658      F2662   1.356       .  S
C2659      C2664   1.402       .  A
C2659      C2668   1.399       .  A
C2664      C2665   1.400       .  A
C2664      F2669   1.357       .  S
C2665      C2666   1.410       .  A
C2665      H2670   1.083       .  S
C2666      C2667   1.413       .  A
C2667      C2668   1.397       .  A
C2667      F2671   1.357       .  S
C2668      H2672   1.083       .  S
C2673      C2674   1.402       .  A
C2673      C2678   1.394       .  A
C2673      H2683   1.083       .  S
C2674      C2679   1.482       .  S
C2674      C2675   1.410       .  A
C2675      C2676   1.398       .  A
C2675      F2680   1.357       .  S
C2676      C2677   1.403       .  A
C2676      H2681   1.083       .  S
C2677      C2678   1.409       .  A
C2678      F2682   1.358       .  S
C2679      C2684   1.409       .  A
C2679      C2688   1.401       .  A
C2684      C2685   1.399       .  A
C2684      F2689   1.357       .  S
C2685      C2686   1.404       .  A
C2685      H2690   1.083       .  S
C2686      C2687   1.412       .  A
C2687      C2688   1.394       .  A
C2687      F2691   1.358       .  S
C2688      H2692   1.083       .  S
C2693      C2694   1.401       .  A
C2693      C2698   1.396       .  A
C2693      H2703   1.083       .  S
C2694      C2699   1.479       .  S
C2694      C2695   1.407       .  A
C2695      C2696   1.400       .  A
C2695      F2700   1.358       .  S
C2696      C2697   1.404       .  A
C2696      H2701   1.083       .  S
C2697      C2698   1.410       .  A
C2698      F2702   1.358       .  S
C2699      C2704   1.406       .  A
C2699      C2708   1.401       .  A
C2704      C2705   1.399   1_545  A
C2704      F2709   1.357       .  S
C2705      C2706   1.407       .  A
C2705      H2710   1.083       .  S
C2706      C2707   1.412       .  A
C2707      C2708   1.395   1_565  A
C2707      F2711   1.358       .  S
C2708      H2712   1.083       .  S
C2713      C2714   1.406       .  A
C2713      C2718   1.405       .  A
C2713      H2723   1.083       .  S
C2714      C2719   1.487       .  S
C2714      C2715   1.405       .  A
C2715      C2716   1.396       .  A
C2715      F2720   1.358       .  S
C2716      C2717   1.408       .  A
C2716      H2721   1.083       .  S
C2717      C2718   1.412       .  A
C2718      F2722   1.357       .  S
C2719      C2724   1.407       .  A
C2719      C2728   1.402       .  A
C2724      C2725   1.405       .  A
C2724      F2729   1.357       .  S
C2725      C2726   1.408       .  A
C2725      H2730   1.083       .  S
C2726      C2727   1.412       .  A
C2727      C2728   1.396       .  A
C2727      F2731   1.358       .  S
C2728      H2732   1.083       .  S
C2733      C2734   1.405       .  A
C2733      C2738   1.403       .  A
C2733      H2743   1.083       .  S
C2734      C2739   1.485       .  S
C2734      C2735   1.404       .  A
C2735      C2736   1.396       .  A
C2735      F2740   1.357       .  S
C2736      C2737   1.409       .  A
C2736      H2741   1.083       .  S
C2737      C2738   1.413       .  A
C2738      F2742   1.357       .  S
C2739      C2744   1.405       .  A
C2739      C2748   1.404       .  A
C2744      C2745   1.397       .  A
C2744      F2749   1.358       .  S
C2745      C2746   1.409       .  A
C2745      H2750   1.083       .  S
C2746      C2747   1.411       .  A
C2747      C2748   1.401       .  A
C2747      F2751   1.357       .  S
C2748      H2752   1.083       .  S
C2753      C2754   1.406       .  A
C2753      C2758   1.404       .  A
C2753      H2763   1.083       .  S
C2754      C2759   1.481       .  S
C2754      C2755   1.403       .  A
C2755      C2756   1.391       .  A
C2755      F2760   1.358       .  S
C2756      C2757   1.407       .  A
C2756      H2761   1.083       .  S
C2757      C2758   1.410       .  A
C2758      F2762   1.357       .  S
C2759      C2764   1.405       .  A
C2759      C2768   1.403       .  A
C2764      C2765   1.401       .  A
C2764      F2769   1.357       .  S
C2765      C2766   1.408       .  A
C2765      H2770   1.083       .  S
C2766      C2767   1.410       .  A
C2767      C2768   1.394       .  A
C2767      F2771   1.358       .  S
C2768      H2772   1.083       .  S
C2773      C2774   1.401       .  A
C2773      C2778   1.394       .  A
C2773      H2783   1.084       .  S
C2774      C2779   1.484       .  S
C2774      C2775   1.408       .  A
C2775      C2776   1.402       .  A
C2775      F2780   1.357       .  S
C2776      C2777   1.408       .  A
C2776      H2781   1.083       .  S
C2777      C2778   1.414       .  A
C2778      F2782   1.358       .  S
C2779      C2784   1.406       .  A
C2779      C2788   1.404       .  A
C2784      C2785   1.398       .  A
C2784      F2789   1.357       .  S
C2785      C2786   1.407       .  A
C2785      H2790   1.083       .  S
C2786      C2787   1.409       .  A
C2787      C2788   1.396       .  A
C2787      F2791   1.358       .  S
C2788      H2792   1.083       .  S
C2793      C2794   1.406       .  A
C2793      C2798   1.406       .  A
C2793      H2803   1.083       .  S
C2794      C2799   1.494       .  S
C2794      C2795   1.407       .  A
C2795      C2796   1.400       .  A
C2795      F2800   1.358       .  S
C2796      C2797   1.408       .  A
C2796      H2801   1.083       .  S
C2797      C2798   1.412       .  A
C2798      F2802   1.357       .  S
C2799      C2804   1.410       .  A
C2799      C2808   1.404       .  A
C2804      C2805   1.406       .  A
C2804      F2809   1.357       .  S
C2805      C2806   1.407       .  A
C2805      H2810   1.083       .  S
C2806      C2807   1.411       .  A
C2807      C2808   1.398       .  A
C2807      F2811   1.358       .  S
C2808      H2812   1.083       .  S
C2813      C2814   1.401       .  A
C2813      C2818   1.397       .  A
C2813      H2823   1.083       .  S
C2814      C2819   1.480       .  S
C2814      C2815   1.407       .  A
C2815      C2816   1.399       .  A
C2815      F2820   1.357       .  S
C2816      C2817   1.405       .  A
C2816      H2821   1.083       .  S
C2817      C2818   1.413       .  A
C2818      F2822   1.358       .  S
C2819      C2824   1.407       .  A
C2819      C2828   1.401       .  A
C2824      C2825   1.400       .  A
C2824      F2829   1.357       .  S
C2825      C2826   1.406       .  A
C2825      H2830   1.083       .  S
C2826      C2827   1.410       .  A
C2827      C2828   1.394       .  A
C2827      F2831   1.358       .  S
C2828      H2832   1.083       .  S
C2833      C2834   1.400       .  A
C2833      C2838   1.393       .  A
C2833      H2843   1.083       .  S
C2834      C2839   1.478       .  S
C2834      C2835   1.408       .  A
C2835      C2836   1.400       .  A
C2835      F2840   1.358       .  S
C2836      C2837   1.405       .  A
C2836      H2841   1.083       .  S
C2837      C2838   1.410       .  A
C2838      F2842   1.358       .  S
C2839      C2844   1.407       .  A
C2839      C2848   1.400       .  A
C2844      C2845   1.399       .  A
C2844      F2849   1.357       .  S
C2845      C2846   1.404       .  A
C2845      H2850   1.083       .  S
C2846      C2847   1.412       .  A
C2847      C2848   1.394       .  A
C2847      F2851   1.358       .  S
C2848      H2852   1.084       .  S
C2853      C2854   1.401       .  A
C2853      C2858   1.393       .  A
C2853      H2863   1.084       .  S
C2854      C2859   1.477       .  S
C2854      C2855   1.404       .  A
C2855      C2856   1.399       .  A
C2855      F2860   1.357       .  S
C2856      C2857   1.408       .  A
C2856      H2861   1.083       .  S
C2857      C2858   1.411       .  A
C2858      F2862   1.358       .  S
C2859      C2864   1.401       .  A
C2859      C2868   1.405       .  A
C2864      C2865   1.391       .  A
C2864      F2869   1.358       .  S
C2865      C2866   1.409       .  A
C2865      H2870   1.083       .  S
C2866      C2867   1.410       .  A
C2867      C2868   1.402       .  A
C2867      F2871   1.357       .  S
C2868      H2872   1.083       .  S
C2873      C2874   1.402       .  A
C2873      C2878   1.395       .  A
C2873      H2883   1.083       .  S
C2874      C2879   1.476       .  S
C2874      C2875   1.404       .  A
C2875      C2876   1.397       .  A
C2875      F2880   1.357       .  S
C2876      C2877   1.407       .  A
C2876      H2881   1.083       .  S
C2877      C2878   1.410       .  A
C2878      F2882   1.358       .  S
C2879      C2884   1.405       .  A
C2879      C2888   1.399       .  A
C2884      C2885   1.401       .  A
C2884      F2889   1.358       .  S
C2885      C2886   1.408       .  A
C2885      H2890   1.083       .  S
C2886      C2887   1.414       .  A
C2887      C2888   1.393       .  A
C2887      F2891   1.357       .  S
C2888      H2892   1.084       .  S
C2893      C2894   1.406       .  A
C2893      C2898   1.404       .  A
C2893      H2903   1.083       .  S
C2894      C2899   1.490       .  S
C2894      C2895   1.405       .  A
C2895      C2896   1.396       .  A
C2895      F2900   1.357       .  S
C2896      C2897   1.409       .  A
C2896      H2901   1.083       .  S
C2897      C2898   1.413       .  A
C2898      F2902   1.357       .  S
C2899      C2904   1.407       .  A
C2899      C2908   1.405       .  A
C2904      C2905   1.401       .  A
C2904      F2909   1.357       .  S
C2905      C2906   1.408       .  A
C2905      H2910   1.083       .  S
C2906      C2907   1.411       .  A
C2907      C2908   1.398       .  A
C2907      F2911   1.358       .  S
C2908      H2912   1.083       .  S
C2913      C2914   1.401       .  A
C2913      C2918   1.392       .  A
C2913      H2923   1.083       .  S
C2914      C2919   1.491       .  S
C2914      C2915   1.410       .  A
C2915      C2916   1.407       .  A
C2915      F2920   1.357       .  S
C2916      C2917   1.408       .  A
C2916      H2921   1.083       .  S
C2917      C2918   1.414       .  A
C2918      F2922   1.358       .  S
C2919      C2924   1.410       .  A
C2919      C2928   1.404       .  A
C2924      C2925   1.401       .  A
C2924      F2929   1.358       .  S
C2925      C2926   1.406       .  A
C2925      H2930   1.083       .  S
C2926      C2927   1.410       .  A
C2927      C2928   1.402       .  A
C2927      F2931   1.357       .  S
C2928      H2932   1.083       .  S
C2933      C2934   1.406       .  A
C2933      C2938   1.396       .  A
C2933      H2943   1.083       .  S
C2934      C2939   1.489       .  S
C2934      C2935   1.410       .  A
C2935      C2936   1.401       .  A
C2935      F2940   1.357       .  S
C2936      C2937   1.404       .  A
C2936      H2941   1.083       .  S
C2937      C2938   1.405       .  A
C2938      F2942   1.358       .  S
C2939      C2944   1.409       .  A
C2939      C2948   1.404       .  A
C2944      C2945   1.403       .  A
C2944      F2949   1.357       .  S
C2945      C2946   1.408       .  A
C2945      H2950   1.083       .  S
C2946      C2947   1.412       .  A
C2947      C2948   1.393       .  A
C2947      F2951   1.358       .  S
C2948      H2952   1.083       .  S
C2953      C2954   1.400       .  A
C2953      C2958   1.393       .  A
C2953      H2963   1.083       .  S
C2954      C2959   1.482       .  S
C2954      C2955   1.410       .  A
C2955      C2956   1.400       .  A
C2955      F2960   1.358       .  S
C2956      C2957   1.404       .  A
C2956      H2961   1.083       .  S
C2957      C2958   1.411       .  A
C2958      F2962   1.358       .  S
C2959      C2964   1.410       .  A
C2959      C2968   1.400       .  A
C2964      C2965   1.401       .  A
C2964      F2969   1.358       .  S
C2965      C2966   1.405       .  A
C2965      H2970   1.083       .  S
C2966      C2967   1.411       .  A
C2967      C2968   1.392       .  A
C2967      F2971   1.358       .  S
C2968      H2972   1.083       .  S
C2973      C2974   1.401       .  A
C2973      C2978   1.397       .  A
C2973      H2983   1.083       .  S
C2974      C2979   1.481       .  S
C2974      C2975   1.408       .  A
C2975      C2976   1.398       .  A
C2975      F2980   1.357       .  S
C2976      C2977   1.404       .  A
C2976      H2981   1.083       .  S
C2977      C2978   1.412       .  A
C2978      F2982   1.358       .  S
C2979      C2984   1.403       .  A
C2979      C2988   1.406       .  A
C2984      C2985   1.394       .  A
C2984      F2989   1.358       .  S
C2985      C2986   1.407       .  A
C2985      H2990   1.083       .  S
C2986      C2987   1.408       .  A
C2987      C2988   1.401       .  A
C2987      F2991   1.357       .  S
C2988      H2992   1.083       .  S
C2993      C2994   1.402       .  A
C2993      C2998   1.393       .  A
C2993      H3003   1.084       .  S
C2994      C2999   1.484   1_556  S
C2994      C2995   1.407       .  A
C2995      C2996   1.406       .  A
C2995      F3000   1.357       .  S
C2996      C2997   1.410       .  A
C2996      H3001   1.083       .  S
C2997      C2998   1.409       .  A
C2998      F3002   1.357       .  S
C2999      C3004   1.405       .  A
C2999      C3008   1.403       .  A
C3004      C3005   1.395       .  A
C3004      F3009   1.358       .  S
C3005      C3006   1.407       .  A
C3005      H3010   1.083       .  S
C3006      C3007   1.413       .  A
C3007      C3008   1.403       .  A
C3007      F3011   1.357       .  S
C3008      H3012   1.083       .  S
C3013      C3014   1.404       .  A
C3013      C3018   1.398       .  A
C3013      H3023   1.084       .  S
C3014      C3019   1.488       .  S
C3014      C3015   1.406       .  A
C3015      C3016   1.404       .  A
C3015      F3020   1.357       .  S
C3016      C3017   1.409       .  A
C3016      H3021   1.083       .  S
C3017      C3018   1.412       .  A
C3018      F3022   1.358       .  S
C3019      C3024   1.409       .  A
C3019      C3028   1.400       .  A
C3024      C3025   1.406       .  A
C3024      F3029   1.357       .  S
C3025      C3026   1.409       .  A
C3025      H3030   1.083       .  S
C3026      C3027   1.415       .  A
C3027      C3028   1.394       .  A
C3027      F3031   1.357       .  S
C3028      H3032   1.084       .  S
C3033      C3034   1.401       .  A
C3033      C3038   1.391       .  A
C3033      H3043   1.083       .  S
C3034      C3039   1.488   1_556  S
C3034      C3035   1.409       .  A
C3035      C3036   1.407       .  A
C3035      F3040   1.357       .  S
C3036      C3037   1.410       .  A
C3036      H3041   1.083       .  S
C3037      C3038   1.412       .  A
C3038      F3042   1.357       .  S
C3039      C3044   1.408       .  A
C3039      C3048   1.405       .  A
C3044      C3045   1.397       .  A
C3044      F3049   1.358       .  S
C3045      C3046   1.404       .  A
C3045      H3050   1.083       .  S
C3046      C3047   1.409       .  A
C3047      C3048   1.401       .  A
C3047      F3051   1.357       .  S
C3048      H3052   1.083       .  S
C3053      C3054   1.407       .  A
C3053      C3058   1.401       .  A
C3053      H3063   1.083       .  S
C3054      C3059   1.480       .  S
C3054      C3055   1.402       .  A
C3055      C3056   1.391       .  A
C3055      F3060   1.358       .  S
C3056      C3057   1.409       .  A
C3056      H3061   1.083       .  S
C3057      C3058   1.408       .  A
C3058      F3062   1.357       .  S
C3059      C3064   1.403       .  A
C3059      C3068   1.406       .  A
C3064      C3065   1.395       .  A
C3064      F3069   1.358       .  S
C3065      C3066   1.408       .  A
C3065      H3070   1.083       .  S
C3066      C3067   1.406       .  A
C3067      C3068   1.398       .  A
C3067      F3071   1.357       .  S
C3068      H3072   1.083       .  S
C3073      C3074   1.407       .  A
C3073      C3078   1.402       .  A
C3073      H3083   1.083       .  S
C3074      C3079   1.483       .  S
C3074      C3075   1.404       .  A
C3075      C3076   1.392       .  A
C3075      F3080   1.357       .  S
C3076      C3077   1.407       .  A
C3076      H3081   1.083       .  S
C3077      C3078   1.408       .  A
C3078      F3082   1.358       .  S
C3079      C3084   1.408       .  A
C3079      C3088   1.402       .  A
C3084      C3085   1.398       .  A
C3084      F3089   1.358       .  S
C3085      C3086   1.405       .  A
C3085      H3090   1.083       .  S
C3086      C3087   1.411       .  A
C3087      C3088   1.397       .  A
C3087      F3091   1.357       .  S
C3088      H3092   1.083       .  S
C3093      C3094   1.408       .  A
C3093      C3098   1.400       .  A
C3093      H3103   1.083       .  S
C3094      C3099   1.495       .  S
C3094      C3095   1.412       .  A
C3095      C3096   1.401       .  A
C3095      F3100   1.357       .  S
C3096      C3097   1.400       .  A
C3096      H3101   1.083       .  S
C3097      C3098   1.404       .  A
C3098      F3102   1.358       .  S
C3099      C3104   1.410       .  A
C3099      C3108   1.408       .  A
C3104      C3105   1.401       .  A
C3104      F3109   1.357       .  S
C3105      C3106   1.406       .  A
C3105      H3110   1.083       .  S
C3106      C3107   1.407       .  A
C3107      C3108   1.401       .  A
C3107      F3111   1.357       .  S
C3108      H3112   1.083       .  S
C3113      C3114   1.408       .  A
C3113      C3118   1.406       .  A
C3113      H3123   1.083       .  S
C3114      C3119   1.494   1_556  S
C3114      C3115   1.408       .  A
C3115      C3116   1.396       .  A
C3115      F3120   1.358       .  S
C3116      C3117   1.408       .  A
C3116      H3121   1.083       .  S
C3117      C3118   1.411       .  A
C3118      F3122   1.357       .  S
C3119      C3124   1.410       .  A
C3119      C3128   1.407       .  A
C3124      C3125   1.403       .  A
C3124      F3129   1.357       .  S
C3125      C3126   1.407       .  A
C3125      H3130   1.083       .  S
C3126      C3127   1.406       .  A
C3127      C3128   1.399       .  A
C3127      F3131   1.357       .  S
C3128      H3132   1.083       .  S
C3133      C3134   1.401       .  A
C3133      C3138   1.395       .  A
C3133      H3143   1.083       .  S
C3134      C3139   1.476   1_655  S
C3134      C3135   1.406       .  A
C3135      C3136   1.393       .  A
C3135      F3140   1.358       .  S
C3136      C3137   1.405       .  A
C3136      H3141   1.083       .  S
C3137      C3138   1.411       .  A
C3138      F3142   1.357       .  S
C3139      C3144   1.407       .  A
C3139      C3148   1.399   1_565  A
C3144      C3145   1.398       .  A
C3144      F3149   1.358       .  S
C3145      C3146   1.407       .  A
C3145      H3150   1.083       .  S
C3146      C3147   1.412   1_565  A
C3147      C3148   1.391       .  A
C3147      F3151   1.357       .  S
C3148      H3152   1.083       .  S
C3153      C3154   1.409       .  A
C3153      C3158   1.406       .  A
C3153      H3163   1.083       .  S
C3154      C3159   1.491   1_556  S
C3154      C3155   1.405       .  A
C3155      C3156   1.393       .  A
C3155      F3160   1.358       .  S
C3156      C3157   1.411       .  A
C3156      H3161   1.083       .  S
C3157      C3158   1.409       .  A
C3158      F3162   1.356       .  S
C3159      C3164   1.407       .  A
C3159      C3168   1.410       .  A
C3164      C3165   1.397       .  A
C3164      F3169   1.357       .  S
C3165      C3166   1.405       .  A
C3165      H3170   1.084       .  S
C3166      C3167   1.404       .  A
C3167      C3168   1.401       .  A
C3167      F3171   1.358       .  S
C3168      H3172   1.083       .  S
C3173      C3174   1.407       .  A
C3173      C3178   1.399       .  A
C3173      H3183   1.083       .  S
C3174      C3179   1.481       .  S
C3174      C3175   1.403       .  A
C3175      C3176   1.395       .  A
C3175      F3180   1.358       .  S
C3176      C3177   1.408       .  A
C3176      H3181   1.083       .  S
C3177      C3178   1.407       .  A
C3178      F3182   1.357       .  S
C3179      C3184   1.403       .  A
C3179      C3188   1.406       .  A
C3184      C3185   1.395       .  A
C3184      F3189   1.358       .  S
C3185      C3186   1.408       .  A
C3185      H3190   1.083       .  S
C3186      C3187   1.408       .  A
C3187      C3188   1.401       .  A
C3187      F3191   1.357       .  S
C3188      H3192   1.083       .  S
C3193      C3194   1.399       .  A
C3193      C3198   1.393       .  A
C3193      H3203   1.083       .  S
C3194      C3199   1.484       .  S
C3194      C3195   1.410       .  A
C3195      C3196   1.401       .  A
C3195      F3200   1.358       .  S
C3196      C3197   1.406       .  A
C3196      H3201   1.083       .  S
C3197      C3198   1.414       .  A
C3198      F3202   1.357       .  S
C3199      C3204   1.411       .  A
C3199      C3208   1.401       .  A
C3204      C3205   1.402       .  A
C3204      F3209   1.358       .  S
C3205      C3206   1.405       .  A
C3205      H3210   1.083       .  S
C3206      C3207   1.409       .  A
C3207      C3208   1.393       .  A
C3207      F3211   1.357       .  S
C3208      H3212   1.083       .  S
C3213      C3214   1.402       .  A
C3213      C3218   1.401       .  A
C3213      H3223   1.083       .  S
C3214      C3219   1.482   1_455  S
C3214      C3215   1.405       .  A
C3215      C3216   1.398       .  A
C3215      F3220   1.358       .  S
C3216      C3217   1.408       .  A
C3216      H3221   1.083       .  S
C3217      C3218   1.414       .  A
C3218      F3222   1.356       .  S
C3219      C3224   1.406       .  A
C3219      C3228   1.401       .  A
C3224      C3225   1.400       .  A
C3224      F3229   1.357       .  S
C3225      C3226   1.408       .  A
C3225      H3230   1.083       .  S
C3226      C3227   1.413       .  A
C3227      C3228   1.395       .  A
C3227      F3231   1.358       .  S
C3228      H3232   1.083       .  S
C3233      C3234   1.408       .  A
C3233      C3238   1.409       .  A
C3233      H3243   1.083       .  S
C3234      C3239   1.493       .  S
C3234      C3235   1.406       .  A
C3235      C3236   1.396       .  A
C3235      F3240   1.358       .  S
C3236      C3237   1.409       .  A
C3236      H3241   1.083       .  S
C3237      C3238   1.412       .  A
C3238      F3242   1.357       .  S
C3239      C3244   1.408       .  A
C3239      C3248   1.407       .  A
C3244      C3245   1.403       .  A
C3244      F3249   1.357       .  S
C3245      C3246   1.407       .  A
C3245      H3250   1.083       .  S
C3246      C3247   1.408       .  A
C3247      C3248   1.399       .  A
C3247      F3251   1.358       .  S
C3248      H3252   1.083       .  S
C3253      C3254   1.403       .  A
C3253      C3258   1.395       .  A
C3253      H3263   1.083       .  S
C3254      C3259   1.481   1_655  S
C3254      C3255   1.407       .  A
C3255      C3256   1.398       .  A
C3255      F3260   1.358       .  S
C3256      C3257   1.406       .  A
C3256      H3261   1.083       .  S
C3257      C3258   1.408       .  A
C3258      F3262   1.357       .  S
C3259      C3264   1.406       .  A
C3259      C3268   1.404       .  A
C3264      C3265   1.395       .  A
C3264      F3269   1.357       .  S
C3265      C3266   1.404       .  A
C3265      H3270   1.083       .  S
C3266      C3267   1.409       .  A
C3267      C3268   1.398       .  A
C3267      F3271   1.357       .  S
C3268      H3272   1.083       .  S
C3273      C3274   1.408       .  A
C3273      C3278   1.397       .  A
C3273      H3283   1.082       .  S
C3274      C3279   1.498       .  S
C3274      C3275   1.413       .  A
C3275      C3276   1.403       .  A
C3275      F3280   1.357       .  S
C3276      C3277   1.405       .  A
C3276      H3281   1.083       .  S
C3277      C3278   1.404       .  A
C3278      F3282   1.357       .  S
C3279      C3284   1.414       .  A
C3279      C3288   1.408       .  A
C3284      C3285   1.400       .  A
C3284      F3289   1.357       .  S
C3285      C3286   1.401       .  A
C3285      H3290   1.083       .  S
C3286      C3287   1.406       .  A
C3287      C3288   1.401       .  A
C3287      F3291   1.358       .  S
C3288      H3292   1.082       .  S
C3293      C3294   1.403       .  A
C3293      C3298   1.400       .  A
C3293      H3303   1.083       .  S
C3294      C3299   1.482       .  S
C3294      C3295   1.406       .  A
C3295      C3296   1.395       .  A
C3295      F3300   1.358       .  S
C3296      C3297   1.406       .  A
C3296      H3301   1.083       .  S
C3297      C3298   1.411       .  A
C3298      F3302   1.357       .  S
C3299      C3304   1.407       .  A
C3299      C3308   1.402       .  A
C3304      C3305   1.404       .  A
C3304      F3309   1.357       .  S
C3305      C3306   1.407       .  A
C3305      H3310   1.083       .  S
C3306      C3307   1.411       .  A
C3307      C3308   1.391       .  A
C3307      F3311   1.358       .  S
C3308      H3312   1.084       .  S
C3313      C3314   1.407       .  A
C3313      C3318   1.399       .  A
C3313      H3323   1.083       .  S
C3314      C3319   1.476       .  S
C3314      C3315   1.402       .  A
C3315      C3316   1.391       .  A
C3315      F3320   1.358       .  S
C3316      C3317   1.406       .  A
C3316      H3321   1.083       .  S
C3317      C3318   1.406       .  A
C3318      F3322   1.358       .  S
C3319      C3324   1.402       .  A
C3319      C3328   1.406       .  A
C3324      C3325   1.392       .  A
C3324      F3329   1.358       .  S
C3325      C3326   1.408       .  A
C3325      H3330   1.083       .  S
C3326      C3327   1.407       .  A
C3327      C3328   1.399       .  A
C3327      F3331   1.357       .  S
C3328      H3332   1.083       .  S
C3333      C3334   1.401       .  A
C3333      C3338   1.393       .  A
C3333      H3343   1.083       .  S
C3334      C3339   1.484       .  S
C3334      C3335   1.410       .  A
C3335      C3336   1.402       .  A
C3335      F3340   1.357       .  S
C3336      C3337   1.405       .  A
C3336      H3341   1.083       .  S
C3337      C3338   1.411       .  A
C3338      F3342   1.358       .  S
C3339      C3344   1.410       .  A
C3339      C3348   1.400       .  A
C3344      C3345   1.402       .  A
C3344      F3349   1.358       .  S
C3345      C3346   1.405       .  A
C3345      H3350   1.083       .  S
C3346      C3347   1.413       .  A
C3347      C3348   1.395       .  A
C3347      F3351   1.358       .  S
C3348      H3352   1.083       .  S
C3353      C3354   1.400       .  A
C3353      C3358   1.395       .  A
C3353      H3363   1.084       .  S
C3354      C3359   1.478   1_455  S
C3354      C3355   1.405       .  A
C3355      C3356   1.398       .  A
C3355      F3360   1.357       .  S
C3356      C3357   1.407       .  A
C3356      H3361   1.083       .  S
C3357      C3358   1.414       .  A
C3358      F3362   1.358       .  S
C3359      C3364   1.405       .  A
C3359      C3368   1.402       .  A
C3364      C3365   1.397       .  A
C3364      F3369   1.358       .  S
C3365      C3366   1.409       .  A
C3365      H3370   1.083       .  S
C3366      C3367   1.411       .  A
C3367      C3368   1.397       .  A
C3367      F3371   1.356       .  S
C3368      H3372   1.083       .  S
C3373      C3374   1.409       .  A
C3373      C3378   1.400       .  A
C3373      H3383   1.083       .  S
C3374      C3379   1.490       .  S
C3374      C3375   1.409       .  A
C3375      C3376   1.396       .  A
C3375      F3380   1.357       .  S
C3376      C3377   1.402       .  A
C3376      H3381   1.084       .  S
C3377      C3378   1.403       .  A
C3378      F3382   1.357       .  S
C3379      C3384   1.411       .  A
C3379      C3388   1.406       .  A
C3384      C3385   1.400       .  A
C3384      F3389   1.357       .  S
C3385      C3386   1.402       .  A
C3385      H3390   1.083       .  S
C3386      C3387   1.405       .  A
C3387      C3388   1.396       .  A
C3387      F3391   1.358       .  S
C3388      H3392   1.083       .  S
C3393      C3394   1.404       .  A
C3393      C3398   1.396       .  A
C3393      H3403   1.083       .  S
C3394      C3399   1.495       .  S
C3394      C3395   1.410       .  A
C3395      C3396   1.405       .  A
C3395      F3400   1.357       .  S
C3396      C3397   1.410       .  A
C3396      H3401   1.083       .  S
C3397      C3398   1.412       .  A
C3398      F3402   1.357       .  S
C3399      C3404   1.410       .  A
C3399      C3408   1.407       .  A
C3404      C3405   1.400       .  A
C3404      F3409   1.358       .  S
C3405      C3406   1.405       .  A
C3405      H3410   1.083       .  S
C3406      C3407   1.409       .  A
C3407      C3408   1.404       .  A
C3407      F3411   1.357       .  S
C3408      H3412   1.083       .  S
C3413      C3414   1.404       .  A
C3413      C3418   1.403       .  A
C3413      H3423   1.083       .  S
C3414      C3419   1.479       .  S
C3414      C3415   1.402       .  A
C3415      C3416   1.391       .  A
C3415      F3420   1.358       .  S
C3416      C3417   1.409       .  A
C3416      H3421   1.083       .  S
C3417      C3418   1.411       .  A
C3418      F3422   1.357       .  S
C3419      C3424   1.402       .  A
C3419      C3428   1.405       .  A
C3424      C3425   1.390       .  A
C3424      F3429   1.358       .  S
C3425      C3426   1.409       .  A
C3425      H3430   1.083       .  S
C3426      C3427   1.410       .  A
C3427      C3428   1.402       .  A
C3427      F3431   1.357       .  S
C3428      H3432   1.083       .  S
C3433      C3434   1.408       .  A
C3433      C3438   1.407       .  A
C3433      H3443   1.083       .  S
C3434      C3439   1.487       .  S
C3434      C3435   1.405       .  A
C3435      C3436   1.394       .  A
C3435      F3440   1.358       .  S
C3436      C3437   1.407       .  A
C3436      H3441   1.083       .  S
C3437      C3438   1.407       .  A
C3438      F3442   1.357       .  S
C3439      C3444   1.406       .  A
C3439      C3448   1.405       .  A
C3444      C3445   1.402       .  A
C3444      F3449   1.357       .  S
C3445      C3446   1.409       .  A
C3445      H3450   1.083       .  S
C3446      C3447   1.410       .  A
C3447      C3448   1.399       .  A
C3447      F3451   1.358       .  S
C3448      H3452   1.083       .  S
C3453      C3454   1.408       .  A
C3453      C3458   1.401       .  A
C3453      H3463   1.083       .  S
C3454      C3459   1.487       .  S
C3454      C3455   1.406       .  A
C3455      C3456   1.396       .  A
C3455      F3460   1.357       .  S
C3456      C3457   1.405       .  A
C3456      H3461   1.083       .  S
C3457      C3458   1.406       .  A
C3458      F3462   1.358       .  S
C3459      C3464   1.404       .  A
C3459      C3468   1.408       .  A
C3464      C3465   1.396       .  A
C3464      F3469   1.358       .  S
C3465      C3466   1.411       .  A
C3465      H3470   1.083       .  S
C3466      C3467   1.408       .  A
C3467      C3468   1.402       .  A
C3467      F3471   1.357       .  S
C3468      H3472   1.083       .  S
C3473      C3474   1.405   1_565  A
C3473      C3478   1.400       .  A
C3473      H3483   1.083   1_565  S
C3474      C3479   1.474       .  S
C3474      C3475   1.400   1_545  A
C3475      C3476   1.390       .  A
C3475      F3480   1.358   1_565  S
C3476      C3477   1.410       .  A
C3476      H3481   1.083       .  S
C3477      C3478   1.409       .  A
C3478      F3482   1.357       .  S
C3479      C3484   1.403       .  A
C3479      C3488   1.404       .  A
C3484      C3485   1.396       .  A
C3484      F3489   1.358       .  S
C3485      C3486   1.406       .  A
C3485      H3490   1.083       .  S
C3486      C3487   1.406       .  A
C3487      C3488   1.396       .  A
C3487      F3491   1.357       .  S
C3488      H3492   1.083       .  S
C3493      C3494   1.408       .  A
C3493      C3498   1.403       .  A
C3493      H3503   1.083       .  S
C3494      C3499   1.482       .  S
C3494      C3495   1.401       .  A
C3495      C3496   1.394       .  A
C3495      F3500   1.358       .  S
C3496      C3497   1.413       .  A
C3496      H3501   1.083       .  S
C3497      C3498   1.407       .  A
C3498      F3502   1.356       .  S
C3499      C3504   1.407       .  A
C3499      C3508   1.402       .  A
C3504      C3505   1.397       .  A
C3504      F3509   1.358       .  S
C3505      C3506   1.408       .  A
C3505      H3510   1.083       .  S
C3506      C3507   1.410       .  A
C3507      C3508   1.397       .  A
C3507      F3511   1.356       .  S
C3508      H3512   1.083       .  S
C3513      C3514   1.406       .  A
C3513      C3518   1.397       .  A
C3513      H3523   1.083       .  S
C3514      C3519   1.496   1_556  S
C3514      C3515   1.411       .  A
C3515      C3516   1.406       .  A
C3515      F3520   1.357       .  S
C3516      C3517   1.407       .  A
C3516      H3521   1.083       .  S
C3517      C3518   1.407       .  A
C3518      F3522   1.358       .  S
C3519      C3524   1.411       .  A
C3519      C3528   1.404       .  A
C3524      C3525   1.408       .  A
C3524      F3529   1.357       .  S
C3525      C3526   1.410       .  A
C3525      H3530   1.083       .  S
C3526      C3527   1.413       .  A
C3527      C3528   1.394       .  A
C3527      F3531   1.357       .  S
C3528      H3532   1.083       .  S
C3533      C3534   1.403       .  A
C3533      C3538   1.393       .  A
C3533      H3543   1.083       .  S
C3534      C3539   1.486       .  S
C3534      C3535   1.407       .  A
C3535      C3536   1.402       .  A
C3535      F3540   1.356       .  S
C3536      C3537   1.407       .  A
C3536      H3541   1.083       .  S
C3537      C3538   1.412       .  A
C3538      F3542   1.359       .  S
C3539      C3544   1.410       .  A
C3539      C3548   1.399       .  A
C3544      C3545   1.406       .  A
C3544      F3549   1.357       .  S
C3545      C3546   1.409       .  A
C3545      H3550   1.083       .  S
C3546      C3547   1.415       .  A
C3547      C3548   1.391       .  A
C3547      F3551   1.357       .  S
C3548      H3552   1.084       .  S
C3553      C3554   1.399       .  A
C3553      C3558   1.393       .  A
C3553      H3563   1.084       .  S
C3554      C3559   1.485       .  S
C3554      C3555   1.409       .  A
C3555      C3556   1.404       .  A
C3555      F3560   1.357       .  S
C3556      C3557   1.407       .  A
C3556      H3561   1.083       .  S
C3557      C3558   1.416       .  A
C3558      F3562   1.358       .  S
C3559      C3564   1.406       .  A
C3559      C3568   1.404       .  A
C3564      C3565   1.400       .  A
C3564      F3569   1.357       .  S
C3565      C3566   1.406       .  A
C3565      H3570   1.083       .  S
C3566      C3567   1.412       .  A
C3567      C3568   1.398       .  A
C3567      F3571   1.358       .  S
C3568      H3572   1.084       .  S
C3573      C3574   1.406       .  A
C3573      C3578   1.403       .  A
C3573      H3583   1.083       .  S
C3574      C3579   1.490   1_556  S
C3574      C3575   1.409       .  A
C3575      C3576   1.400       .  A
C3575      F3580   1.357       .  S
C3576      C3577   1.403       .  A
C3576      H3581   1.083       .  S
C3577      C3578   1.408       .  A
C3578      F3582   1.357       .  S
C3579      C3584   1.405       .  A
C3579      C3588   1.407       .  A
C3584      C3585   1.396       .  A
C3584      F3589   1.358       .  S
C3585      C3586   1.410       .  A
C3585      H3590   1.083       .  S
C3586      C3587   1.412       .  A
C3587      C3588   1.406       .  A
C3587      F3591   1.357       .  S
C3588      H3592   1.083       .  S
C3593      C3594   1.403       .  A
C3593      C3598   1.396       .  A
C3593      H3603   1.083       .  S
C3594      C3599   1.484       .  S
C3594      C3595   1.409       .  A
C3595      C3596   1.397       .  A
C3595      F3600   1.357       .  S
C3596      C3597   1.402       .  A
C3596      H3601   1.083       .  S
C3597      C3598   1.410       .  A
C3598      F3602   1.358       .  S
C3599      C3604   1.409       .  A
C3599      C3608   1.400       .  A
C3604      C3605   1.402       .  A
C3604      F3609   1.358       .  S
C3605      C3606   1.407       .  A
C3605      H3610   1.083       .  S
C3606      C3607   1.413       .  A
C3607      C3608   1.393       .  A
C3607      F3611   1.358       .  S
C3608      H3612   1.083       .  S
C3613      C3614   1.402       .  A
C3613      C3618   1.393       .  A
C3613      H3623   1.083       .  S
C3614      C3619   1.479       .  S
C3614      C3615   1.408       .  A
C3615      C3616   1.397       .  A
C3615      F3620   1.357       .  S
C3616      C3617   1.404       .  A
C3616      H3621   1.083       .  S
C3617      C3618   1.410       .  A
C3618      F3622   1.358       .  S
C3619      C3624   1.408       .  A
C3619      C3628   1.401       .  A
C3624      C3625   1.397       .  A
C3624      F3629   1.357       .  S
C3625      C3626   1.404       .  A
C3625      H3630   1.083       .  S
C3626      C3627   1.412       .  A
C3627      C3628   1.393       .  A
C3627      F3631   1.358       .  S
C3628      H3632   1.083       .  S
C3633      C3634   1.401       .  A
C3633      C3638   1.393       .  A
C3633      H3643   1.084       .  S
C3634      C3639   1.480       .  S
C3634      C3635   1.405       .  A
C3635      C3636   1.403       .  A
C3635      F3640   1.358       .  S
C3636      C3637   1.410       .  A
C3636      H3641   1.083       .  S
C3637      C3638   1.411       .  A
C3638      F3642   1.357       .  S
C3639      C3644   1.407       .  A
C3639      C3648   1.400       .  A
C3644      C3645   1.401       .  A
C3644      F3649   1.357       .  S
C3645      C3646   1.408       .  A
C3645      H3650   1.083       .  S
C3646      C3647   1.413       .  A
C3647      C3648   1.391       .  A
C3647      F3651   1.358       .  S
C3648      H3652   1.084       .  S
C3653      C3654   1.410       .  A
C3653      C3658   1.403       .  A
C3653      H3663   1.083       .  S
C3654      C3659   1.494       .  S
C3654      C3655   1.409       .  A
C3655      C3656   1.397       .  A
C3655      F3660   1.357       .  S
C3656      C3657   1.401       .  A
C3656      H3661   1.084       .  S
C3657      C3658   1.405       .  A
C3658      F3662   1.358       .  S
C3659      C3664   1.409       .  A
C3659      C3668   1.408       .  A
C3664      C3665   1.402       .  A
C3664      F3669   1.357       .  S
C3665      C3666   1.406       .  A
C3665      H3670   1.083       .  S
C3666      C3667   1.407       .  A
C3667      C3668   1.401       .  A
C3667      F3671   1.357       .  S
C3668      H3672   1.083       .  S
C3673      C3674   1.402       .  A
C3673      C3678   1.392       .  A
C3673      H3683   1.083       .  S
C3674      C3679   1.488       .  S
C3674      C3675   1.408       .  A
C3675      C3676   1.405       .  A
C3675      F3680   1.357       .  S
C3676      C3677   1.409       .  A
C3676      H3681   1.083       .  S
C3677      C3678   1.413       .  A
C3678      F3682   1.358       .  S
C3679      C3684   1.409       .  A
C3679      C3688   1.405       .  A
C3684      C3685   1.398       .  A
C3684      F3689   1.358       .  S
C3685      C3686   1.403       .  A
C3685      H3690   1.083       .  S
C3686      C3687   1.410       .  A
C3687      C3688   1.402       .  A
C3687      F3691   1.357       .  S
C3688      H3692   1.083       .  S
C3693      C3694   1.400       .  A
C3693      C3698   1.393       .  A
C3693      H3703   1.084       .  S
C3694      C3699   1.482       .  S
C3694      C3695   1.407       .  A
C3695      C3696   1.400       .  A
C3695      F3700   1.357       .  S
C3696      C3697   1.407       .  A
C3696      H3701   1.083       .  S
C3697      C3698   1.414       .  A
C3698      F3702   1.358       .  S
C3699      C3704   1.406       .  A
C3699      C3708   1.401       .  A
C3704      C3705   1.400       .  A
C3704      F3709   1.357       .  S
C3705      C3706   1.408       .  A
C3705      H3710   1.083       .  S
C3706      C3707   1.413       .  A
C3707      C3708   1.395       .  A
C3707      F3711   1.358       .  S
C3708      H3712   1.084       .  S
C3713      C3714   1.402       .  A
C3713      C3718   1.398       .  A
C3713      H3723   1.084       .  S
C3714      C3719   1.470       .  S
C3714      C3715   1.399       .  A
C3715      C3716   1.392       .  A
C3715      F3720   1.358       .  S
C3716      C3717   1.410       .  A
C3716      H3721   1.083       .  S
C3717      C3718   1.412       .  A
C3718      F3722   1.357       .  S
C3719      C3724   1.401       .  A
C3719      C3728   1.399       .  A
C3724      C3725   1.397       .  A
C3724      F3729   1.358       .  S
C3725      C3726   1.410       .  A
C3725      H3730   1.083       .  S
C3726      C3727   1.412       .  A
C3727      C3728   1.394       .  A
C3727      F3731   1.357       .  S
C3728      H3732   1.084       .  S
C3733      C3734   1.402       .  A
C3733      C3738   1.394       .  A
C3733      H3743   1.083       .  S
C3734      C3739   1.490       .  S
C3734      C3735   1.409       .  A
C3735      C3736   1.405       .  A
C3735      F3740   1.357       .  S
C3736      C3737   1.409       .  A
C3736      H3741   1.083       .  S
C3737      C3738   1.414       .  A
C3738      F3742   1.357       .  S
C3739      C3744   1.409       .  A
C3739      C3748   1.406       .  A
C3744      C3745   1.401       .  A
C3744      F3749   1.357       .  S
C3745      C3746   1.405       .  A
C3745      H3750   1.083       .  S
C3746      C3747   1.409       .  A
C3747      C3748   1.399       .  A
C3747      F3751   1.358       .  S
C3748      H3752   1.083       .  S
C3753      C3754   1.400       .  A
C3753      C3758   1.393       .  A
C3753      H3763   1.083       .  S
C3754      C3759   1.476       .  S
C3754      C3755   1.408       .  A
C3755      C3756   1.398       .  A
C3755      F3760   1.358       .  S
C3756      C3757   1.404       .  A
C3756      H3761   1.083       .  S
C3757      C3758   1.409       .  A
C3758      F3762   1.357       .  S
C3759      C3764   1.408       .  A
C3759      C3768   1.398       .  A
C3764      C3765   1.399       .  A
C3764      F3769   1.357       .  S
C3765      C3766   1.405       .  A
C3765      H3770   1.083       .  S
C3766      C3767   1.412       .  A
C3767      C3768   1.390       .  A
C3767      F3771   1.358       .  S
C3768      H3772   1.083       .  S
C3773      C3774   1.410       .  A
C3773      C3778   1.402       .  A
C3773      H3783   1.083       .  S
C3774      C3779   1.487       .  S
C3774      C3775   1.405       .  A
C3775      C3776   1.393       .  A
C3775      F3780   1.357       .  S
C3776      C3777   1.405       .  A
C3776      H3781   1.084       .  S
C3777      C3778   1.405       .  A
C3778      F3782   1.358       .  S
C3779      C3784   1.404       .  A
C3779      C3788   1.408       .  A
C3784      C3785   1.395       .  A
C3784      F3789   1.358       .  S
C3785      C3786   1.410       .  A
C3785      H3790   1.083       .  S
C3786      C3787   1.409       .  A
C3787      C3788   1.401       .  A
C3787      F3791   1.357       .  S
C3788      H3792   1.083       .  S
C3793      C3794   1.404       .  A
C3793      C3798   1.402       .  A
C3793      H3803   1.083       .  S
C3794      C3799   1.477       .  S
C3794      C3795   1.401       .  A
C3795      C3796   1.391       .  A
C3795      F3800   1.358       .  S
C3796      C3797   1.410       .  A
C3796      H3801   1.083       .  S
C3797      C3798   1.411       .  A
C3798      F3802   1.357       .  S
C3799      C3804   1.402       .  A
C3799      C3808   1.403       .  A
C3804      C3805   1.391       .  A
C3804      F3809   1.358       .  S
C3805      C3806   1.408       .  A
C3805      H3810   1.083       .  S
C3806      C3807   1.412       .  A
C3807      C3808   1.401       .  A
C3807      F3811   1.357       .  S
C3808      H3812   1.083       .  S
C3813      C3814   1.403       .  A
C3813      C3818   1.396       .  A
C3813      H3823   1.083       .  S
C3814      C3819   1.479       .  S
C3814      C3815   1.405       .  A
C3815      C3816   1.393       .  A
C3815      F3820   1.358       .  S
C3816      C3817   1.408       .  A
C3816      H3821   1.083       .  S
C3817      C3818   1.410       .  A
C3818      F3822   1.356       .  S
C3819      C3824   1.406       .  A
C3819      C3828   1.404       .  A
C3824      C3825   1.393       .  A
C3824      F3829   1.357       .  S
C3825      C3826   1.405       .  A
C3825      H3830   1.083       .  S
C3826      C3827   1.409       .  A
C3827      C3828   1.394       .  A
C3827      F3831   1.358       .  S
C3828      H3832   1.083       .  S
C3833      C3834   1.401       .  A
C3833      C3838   1.391       .  A
C3833      H3843   1.083       .  S
C3834      C3839   1.489   1_556  S
C3834      C3835   1.409       .  A
C3835      C3836   1.408       .  A
C3835      F3840   1.357       .  S
C3836      C3837   1.410       .  A
C3836      H3841   1.083       .  S
C3837      C3838   1.413       .  A
C3838      F3842   1.357       .  S
C3839      C3844   1.408       .  A
C3839      C3848   1.405       .  A
C3844      C3845   1.397       .  A
C3844      F3849   1.358       .  S
C3845      C3846   1.405       .  A
C3845      H3850   1.083       .  S
C3846      C3847   1.411       .  A
C3847      C3848   1.404       .  A
C3847      F3851   1.357       .  S
C3848      H3852   1.083       .  S
C3853      C3854   1.409       .  A
C3853      C3858   1.404       .  A
C3853      H3863   1.083       .  S
C3854      C3859   1.489       .  S
C3854      C3855   1.404       .  A
C3855      C3856   1.391       .  A
C3855      F3860   1.358       .  S
C3856      C3857   1.410       .  A
C3856      H3861   1.083       .  S
C3857      C3858   1.409       .  A
C3858      F3862   1.357       .  S
C3859      C3864   1.408       .  A
C3859      C3868   1.406       .  A
C3864      C3865   1.395       .  A
C3864      F3869   1.358       .  S
C3865      C3866   1.408       .  A
C3865      H3870   1.083       .  S
C3866      C3867   1.410       .  A
C3867      C3868   1.401       .  A
C3867      F3871   1.356       .  S
C3868      H3872   1.083       .  S
C3873      C3874   1.405       .  A
C3873      C3878   1.399       .  A
C3873      H3883   1.083       .  S
C3874      C3879   1.482       .  S
C3874      C3875   1.405       .  A
C3875      C3876   1.395       .  A
C3875      F3880   1.358       .  S
C3876      C3877   1.406       .  A
C3876      H3881   1.083       .  S
C3877      C3878   1.409       .  A
C3878      F3882   1.357       .  S
C3879      C3884   1.406       .  A
C3879      C3888   1.405       .  A
C3884      C3885   1.397       .  A
C3884      F3889   1.358       .  S
C3885      C3886   1.406       .  A
C3885      H3890   1.083       .  S
C3886      C3887   1.407       .  A
C3887      C3888   1.397       .  A
C3887      F3891   1.357       .  S
C3888      H3892   1.083       .  S
C3893      C3894   1.406       .  A
C3893      C3898   1.399       .  A
C3893      H3903   1.083       .  S
C3894      C3899   1.491       .  S
C3894      C3895   1.411       .  A
C3895      C3896   1.403       .  A
C3895      F3900   1.357       .  S
C3896      C3897   1.402       .  A
C3896      H3901   1.083       .  S
C3897      C3898   1.404       .  A
C3898      F3902   1.358       .  S
C3899      C3904   1.409       .  A
C3899      C3908   1.406       .  A
C3904      C3905   1.399       .  A
C3904      F3909   1.357       .  S
C3905      C3906   1.405       .  A
C3905      H3910   1.083       .  S
C3906      C3907   1.409       .  A
C3907      C3908   1.400       .  A
C3907      F3911   1.358       .  S
C3908      H3912   1.083       .  S
C3913      C3914   1.408       .  A
C3913      C3918   1.399       .  A
C3913      H3923   1.083       .  S
C3914      C3919   1.492   1_556  S
C3914      C3915   1.411       .  A
C3915      C3916   1.399       .  A
C3915      F3920   1.357       .  S
C3916      C3917   1.402       .  A
C3916      H3921   1.084       .  S
C3917      C3918   1.404       .  A
C3918      F3922   1.358       .  S
C3919      C3924   1.408       .  A
C3919      C3928   1.407       .  A
C3924      C3925   1.397       .  A
C3924      F3929   1.357       .  S
C3925      C3926   1.408       .  A
C3925      H3930   1.083       .  S
C3926      C3927   1.412       .  A
C3927      C3928   1.403       .  A
C3927      F3931   1.357       .  S
C3928      H3932   1.083       .  S
C3933      C3934   1.405       .  A
C3933      C3938   1.400       .  A
C3933      H3943   1.083       .  S
C3934      C3939   1.481       .  S
C3934      C3935   1.403       .  A
C3935      C3936   1.394       .  A
C3935      F3940   1.358       .  S
C3936      C3937   1.408       .  A
C3936      H3941   1.083       .  S
C3937      C3938   1.409       .  A
C3938      F3942   1.357       .  S
C3939      C3944   1.408       .  A
C3939      C3948   1.400       .  A
C3944      C3945   1.399       .  A
C3944      F3949   1.357       .  S
C3945      C3946   1.403       .  A
C3945      H3950   1.083       .  S
C3946      C3947   1.412       .  A
C3947      C3948   1.396       .  A
C3947      F3951   1.358       .  S
C3948      H3952   1.083       .  S
C3953      C3954   1.402       .  A
C3953      C3958   1.396       .  A
C3953      H3963   1.083       .  S
C3954      C3959   1.485       .  S
C3954      C3955   1.409       .  A
C3955      C3956   1.402       .  A
C3955      F3960   1.357       .  S
C3956      C3957   1.405       .  A
C3956      H3961   1.083       .  S
C3957      C3958   1.411       .  A
C3958      F3962   1.357       .  S
C3959      C3964   1.409       .  A
C3959      C3968   1.401       .  A
C3964      C3965   1.401   1_545  A
C3964      F3969   1.357       .  S
C3965      C3966   1.406       .  A
C3965      H3970   1.083       .  S
C3966      C3967   1.413       .  A
C3967      C3968   1.397   1_565  A
C3967      F3971   1.358       .  S
C3968      H3972   1.083       .  S
C3973      C3974   1.398       .  A
C3973      C3978   1.389       .  A
C3973      H3983   1.084       .  S
C3974      C3979   1.476       .  S
C3974      C3975   1.407       .  A
C3975      C3976   1.401       .  A
C3975      F3980   1.358       .  S
C3976      C3977   1.408       .  A
C3976      H3981   1.083       .  S
C3977      C3978   1.414       .  A
C3978      F3982   1.357       .  S
C3979      C3984   1.404       .  A
C3979      C3988   1.402       .  A
C3984      C3985   1.397       .  A
C3984      F3989   1.357       .  S
C3985      C3986   1.408       .  A
C3985      H3990   1.083       .  S
C3986      C3987   1.412       .  A
C3987      C3988   1.393       .  A
C3987      F3991   1.358       .  S
C3988      H3992   1.084       .  S
C3993      C3994   1.402       .  A
C3993      C3998   1.397       .  A
C3993      H4003   1.083       .  S
C3994      C3999   1.479       .  S
C3994      C3995   1.405       .  A
C3995      C3996   1.396       .  A
C3995      F4000   1.357       .  S
C3996      C3997   1.406       .  A
C3996      H4001   1.083       .  S
C3997      C3998   1.413       .  A
C3998      F4002   1.358       .  S
C3999      C4004   1.404       .  A
C3999      C4008   1.402       .  A
C4004      C4005   1.398       .  A
C4004      F4009   1.358       .  S
C4005      C4006   1.409       .  A
C4005      H4010   1.083       .  S
C4006      C4007   1.411       .  A
C4007      C4008   1.397       .  A
C4007      F4011   1.356       .  S
C4008      H4012   1.083       .  S
C4013      C4014   1.406       .  A
C4013      C4018   1.404       .  A
C4013      H4023   1.083       .  S
C4014      C4019   1.485       .  S
C4014      C4015   1.403       .  A
C4015      C4016   1.394       .  A
C4015      F4020   1.358       .  S
C4016      C4017   1.410       .  A
C4016      H4021   1.083       .  S
C4017      C4018   1.411       .  A
C4018      F4022   1.357       .  S
C4019      C4024   1.404       .  A
C4019      C4028   1.405       .  A
C4024      C4025   1.395       .  A
C4024      F4029   1.357       .  S
C4025      C4026   1.408       .  A
C4025      H4030   1.083       .  S
C4026      C4027   1.413       .  A
C4027      C4028   1.403       .  A
C4027      F4031   1.357       .  S
C4028      H4032   1.083       .  S
