geometry optimzed in LAMMPS
_audit_creation_date              2020-12-01 
_audit_creation_method            'lammps2cif' 
_symmetry_space_group_name_H-M    'P1' 
_symmetry_Int_Tables_number       1 
_symmetry_cell_setting            triclinic 
loop_ 
_symmetry_equiv_pos_as_xyz 
  x,y,z 
_cell_length_a                    44.00671981 
_cell_length_b                    44.50463568101196 
_cell_length_c                    17.352893602745 
_cell_angle_alpha                 90.50823733304172 
_cell_angle_beta                  90.41758934243069 
_cell_angle_gamma                 121.54679259377481 
loop_ 
_atom_site_label 
_atom_site_type_symbol 
_atom_site_fract_x 
_atom_site_fract_y 
_atom_site_fract_z 
_atom_site_charge 
In1        In  0.00204508  0.40246630  0.45216000     1.36900
C2          C  0.00693984  0.45989847  0.49990570     0.77400
O3          O  0.94794259  0.38970555  0.42217671    -0.61000
O4          O  0.95610221  0.37363094  0.53301525    -0.51900
C5          C  0.99414600  0.35445309  0.35425031     0.70100
O6          O  0.99394845  0.38180671  0.33485257    -0.46800
C7          C  0.07190309  0.43695632  0.46253734     0.74800
O8          O  0.00344809  0.45163080  0.42839995    -0.58700
O9          O  0.05222663  0.41488039  0.51345307    -0.48700
O10         O  0.00967673  0.43941596  0.54612979    -0.55100
C11         C  0.93534206  0.37760868  0.48801614     0.85000
O12         O  0.99741649  0.35083451  0.42595930    -0.57000
O13         O  0.05566217  0.43862136  0.40350868    -0.60300
In14       In  0.02981014  0.65282148  0.52602086     1.36900
C15         C  0.02111183  0.59126210  0.55250739     0.77400
O16         O  0.99153512  0.63297182  0.42151672    -0.61000
O17         O  0.97027692  0.62722686  0.53314312    -0.51900
C18         C  0.02878804  0.69604965  0.62828476     0.70100
O19         O  0.02751636  0.66787841  0.64463776    -0.46800
C20         C  0.09889299  0.68336789  0.48551821     0.74800
O21         O  0.02287090  0.61091225  0.60746171    -0.58700
O22         O  0.07568176  0.68395958  0.44252335    -0.48700
O23         O  0.02464060  0.60358090  0.48595147    -0.55100
C24         C  0.96380850  0.61952931  0.46261323     0.85000
O25         O  0.03158565  0.70346711  0.55726849    -0.57000
O26         O  0.08697033  0.66992459  0.55023518    -0.60300
In27       In  0.02234807  0.41881738  0.01680438     1.36900
C28         C  0.02560567  0.47346418  0.08712236     0.77400
O29         O  0.08130884  0.44066391  0.02715460    -0.61000
O30         O  0.06040240  0.44040348  0.91664314    -0.51900
C31         C  0.01674986  0.36438825  0.08799087     0.70100
O32         O  0.03131744  0.39499906  0.11700570    -0.46800
C33         C  0.95645788  0.39365623  0.95930202     0.74800
O34         O  0.01503173  0.44496036  0.12164059    -0.58700
O35         O  0.98337976  0.40616816  0.91593636    -0.48700
O36         O  0.03558372  0.47417641  0.01914584    -0.55100
C37         C  0.08798005  0.45032050  0.95827781     0.85000
O38         O  0.00660804  0.36146331  0.01839895    -0.57000
O39         O  0.96343731  0.39275653  0.02937376    -0.60300
In40       In  0.02269445  0.64726063  0.00866205     1.36900
C41         C  0.02031895  0.59408228  0.07558984     0.77400
O42         O  0.06873109  0.65282518  0.95008101    -0.61000
O43         O  0.07813185  0.68380067  0.05374045    -0.51900
C44         C  0.02288170  0.69104645  0.91192377     0.70100
O45         O  0.01832772  0.66138593  0.89221962    -0.46800
C46         C  0.95486923  0.61226023  0.02516696     0.74800
O47         O  0.01673642  0.59515636  0.00296693    -0.58700
O48         O  0.97516545  0.63572432  0.07512730    -0.48700
O49         O  0.02482931  0.62051084  0.11485731    -0.55100
C50         C  0.09108527  0.67412308  0.00012717     0.85000
O51         O  0.02696945  0.69866197  0.98382371    -0.57000
O52         O  0.96947182  0.60963826  0.96473726    -0.60300
C53         C  0.35685114  0.82006955  0.89227377    -0.02700
C54         C  0.23279824  0.69153354  0.03327221    -0.02700
C55         C  0.23338436  0.56833880  0.88062593    -0.02700
C56         C  0.35499455  0.56511051  0.04347558    -0.02700
C57         C  0.47820440  0.69229179  0.88903189    -0.02700
C58         C  0.48329211  0.81927298  0.03565750    -0.02700
C59         C  0.36252665  0.81753568  0.53710893    -0.02700
C60         C  0.23105726  0.69007218  0.38947171    -0.02700
C61         C  0.21845322  0.55583750  0.52577288    -0.02700
C62         C  0.35036693  0.56186421  0.39391138    -0.02700
C63         C  0.48074315  0.69174284  0.53595819    -0.02700
C64         C  0.48869576  0.81890696  0.38728998    -0.02700
In65       In  0.40033082  0.02177745  0.49091410     1.36900
C66         C  0.44446532  0.02153659  0.58888518     0.77400
O67         O  0.44589756  0.07197604  0.45111597    -0.61000
O68         O  0.41252452  0.07284486  0.54036723    -0.51900
C69         C  0.35922803  0.02077279  0.38260593     0.70100
O70         O  0.38881600  0.02316662  0.37038507    -0.46800
C71         C  0.37682550  0.95511086  0.47984153     0.74800
O72         O  0.44993653  0.02464672  0.51671692    -0.58700
O73         O  0.36333802  0.96657371  0.52823505    -0.48700
O74         O  0.41556838  0.01861307  0.61238486    -0.55100
C75         C  0.44020493  0.09021643  0.49895262     0.85000
O76         O  0.34994788  0.01882750  0.45284522    -0.57000
O77         O  0.39908542  0.97776388  0.43354113    -0.60300
In78       In  0.62292874  0.02673141  0.56916845     1.36900
C79         C  0.56584999  0.02215345  0.62948028     0.77400
O80         O  0.63535018  0.06654864  0.47637339    -0.61000
O81         O  0.65010998  0.08481602  0.59197970    -0.51900
C82         C  0.67734343  0.02761564  0.63558443     0.70100
O83         O  0.64940978  0.02090450  0.67026201    -0.46800
C84         C  0.59036195  0.96330980  0.50261076     0.74800
O85         O  0.56923895  0.01902061  0.55844070    -0.58700
O86         O  0.59339836  0.96817326  0.57454869    -0.48700
O87         O  0.59157099  0.02694201  0.67156203    -0.55100
C88         C  0.64767729  0.09238003  0.52335599     0.85000
O89         O  0.67796876  0.03413201  0.56462843    -0.57000
O90         O  0.60612236  0.99126822  0.46359925    -0.60300
In91       In  0.39553334  0.02313815  0.97080313     1.36900
C92         C  0.44849090  0.02315609  0.90701406     0.77400
O93         O  0.38544550  0.97375347  0.01453600    -0.61000
O94         O  0.35885015  0.97200019  0.90790144    -0.51900
C95         C  0.35788946  0.02210503  0.08582255     0.70100
O96         O  0.38809158  0.02522668  0.09343109    -0.46800
C97         C  0.43191474  0.09109717  0.95464091     0.74800
O98         O  0.44535491  0.02360390  0.97975932    -0.58700
O99         O  0.40528974  0.07147702  0.91005729    -0.48700
O100        O  0.42458567  0.02352363  0.86603404    -0.55100
C101        C  0.36729535  0.95586264  0.95611205     0.85000
O102        O  0.34609100  0.01923077  0.01714012    -0.57000
O103        O  0.43712444  0.07553759  0.00931493    -0.60300
In104      In  0.63450394  0.03508616  0.94051679     1.36900
C105        C  0.57543380  0.02720942  0.88488007     0.77400
O106        O  0.60609020  0.97771964  0.91138243    -0.61000
O107        O  0.61074518  0.99238113  0.03017713    -0.51900
C108        C  0.69032389  0.03851421  0.87892342     0.70100
O109        O  0.66738195  0.04163666  0.84160922    -0.46800
C110        C  0.65922592  0.10071740  0.99171864     0.74800
O111        O  0.60028405  0.03216328  0.84054409    -0.58700
O112        O  0.64898749  0.07515925  0.03758872    -0.48700
O113        O  0.58142097  0.02711329  0.95591965    -0.55100
C114        C  0.59714271  0.96769526  0.97969675     0.85000
O115        O  0.68569894  0.03475025  0.95100992    -0.57000
O116        O  0.65912852  0.09281203  0.92186301    -0.60300
C117        C  0.55057851  0.23945476  0.56538701    -0.02700
C118        C  0.55795075  0.35905977  0.38286409    -0.02700
C119        C  0.79756372  0.36678377  0.56648103    -0.02700
C120        C  0.67273155  0.23077194  0.42878445    -0.02700
C121        C  0.81654425  0.49868737  0.41546649    -0.02700
C122        C  0.68193863  0.49197870  0.53576967    -0.02700
C123        C  0.80861266  0.35947213  0.91365717    -0.02700
C124        C  0.68093945  0.24049278  0.07796666    -0.02700
C125        C  0.55355432  0.23587313  0.91262747    -0.02700
C126        C  0.55533293  0.36491087  0.02811822    -0.02700
C127        C  0.81238754  0.48687226  0.06230938    -0.02700
C128        C  0.68907110  0.48664931  0.89492399    -0.02700
In129      In  0.40139373  0.40639102  0.50267086     1.36900
C130        C  0.46153544  0.46511358  0.49776996     0.77400
O131        O  0.43699029  0.38774494  0.53978757    -0.61000
O132        O  0.41876578  0.37920138  0.42213309    -0.51900
C133        C  0.34840683  0.35387412  0.57114862     0.70100
O134        O  0.37497895  0.37902137  0.60695973    -0.46800
C135        C  0.37484030  0.44646597  0.47772875     0.74800
O136        O  0.44787511  0.45100658  0.56205309    -0.58700
O137        O  0.37440006  0.42601946  0.42501713    -0.48700
O138        O  0.44412260  0.44831082  0.43749678    -0.55100
C139        C  0.43884778  0.37724800  0.47290634     0.85000
O140        O  0.34863337  0.35548584  0.49813709    -0.57000
O141        O  0.38509252  0.44296032  0.54366381    -0.60300
In142      In  0.64986874  0.65891340  0.44202911     1.36900
C143        C  0.59085041  0.59877774  0.45741188     0.77400
O144        O  0.66531411  0.62208737  0.40244822    -0.61000
O145        O  0.68116704  0.64242579  0.51779198    -0.51900
C146        C  0.69200519  0.70118302  0.33676397     0.70100
O147        O  0.66191336  0.67388126  0.32264895    -0.46800
C148        C  0.61039508  0.68542388  0.47767440     0.74800
O149        O  0.60279399  0.61198761  0.39188959    -0.58700
O150        O  0.61058632  0.67306506  0.41199979    -0.48700
O151        O  0.60964503  0.61678664  0.51512795    -0.55100
C152        C  0.67788299  0.62003647  0.46658486     0.85000
O153        O  0.70116858  0.70804066  0.40746386    -0.57000
O154        O  0.63492633  0.68942705  0.52428133    -0.60300
In155      In  0.39829830  0.40879195  0.89570851     1.36900
C156        C  0.45701202  0.46451643  0.84645381     0.77400
O157        O  0.38361892  0.43037650  0.99819514    -0.61000
O158        O  0.37343808  0.44115302  0.88473262    -0.51900
C159        C  0.34349572  0.35720154  0.82105912     0.70100
O160        O  0.36873680  0.38387308  0.78908332    -0.46800
C161        C  0.43294255  0.37772581  0.94220681     0.74800
O162        O  0.45081984  0.45695323  0.91660964    -0.58700
O163        O  0.42937576  0.38323886  0.87252777    -0.48700
O164        O  0.43289673  0.44348490  0.79964386    -0.55100
C165        C  0.37373316  0.44687274  0.95594364     0.85000
O166        O  0.34549709  0.35670717  0.89369866    -0.57000
O167        O  0.41602229  0.38572179  0.98855350    -0.60300
In168      In  0.63804007  0.64224939  0.95677014     1.36900
C169        C  0.58679132  0.58914835  0.88196693     0.77400
O170        O  0.59560041  0.64758764  0.00728313    -0.61000
O171        O  0.62065817  0.67685861  0.90502894    -0.51900
C172        C  0.68448893  0.68886621  0.05222470     0.70100
O173        O  0.65656472  0.66077578  0.07323994    -0.46800
C174        C  0.66672330  0.60402110  0.95906756     0.74800
O175        O  0.58821041  0.59114549  0.95527165    -0.58700
O176        O  0.67460376  0.62672174  0.90620588    -0.48700
O177        O  0.61243026  0.61461745  0.84595689    -0.55100
C178        C  0.59603606  0.66746421  0.95463876     0.85000
O179        O  0.68890136  0.69383577  0.97977543    -0.57000
O180        O  0.64723152  0.60422283  0.01246122    -0.60300
C181        C  0.49155646  0.52802782  0.82461653    -0.20500
C182        C  0.49026478  0.49602762  0.82374672    -0.07000
C183        C  0.52215298  0.49586704  0.82209677     0.13800
C184        C  0.55484567  0.52769984  0.83327177    -0.20500
C185        C  0.55576849  0.55944722  0.84310204    -0.07000
C186        C  0.52416301  0.55987665  0.83327845     0.13800
C187        C  0.52382882  0.59336891  0.83458450    -0.23900
H188        H  0.46692210  0.52807041  0.82460066     0.15100
H189        H  0.57924516  0.52745957  0.83979987     0.15100
C190        C  0.52126031  0.46188698  0.81176885    -0.23800
H191        H  0.51317853  0.59549940  0.77826744     0.05400
H192        H  0.55073141  0.61718275  0.84215691     0.08600
H193        H  0.50648415  0.59270924  0.88151532     0.08600
H194        H  0.54862630  0.46679857  0.80707615     0.08600
H195        H  0.50651720  0.44838436  0.75779747     0.08600
H196        H  0.50757293  0.44436741  0.86112746     0.05300
C197        C  0.69928899  0.73523990  0.14678117    -0.20500
C198        C  0.70913882  0.71316477  0.11171427    -0.07000
C199        C  0.72912170  0.70247616  0.15470204     0.13800
C200        C  0.73205417  0.70769665  0.23495750    -0.20500
C201        C  0.71379908  0.72168980  0.27175270    -0.07000
C202        C  0.70108140  0.73930774  0.22727950     0.13800
C203        C  0.68460601  0.75783096  0.26554469    -0.23900
H204        H  0.68457930  0.74406926  0.11329984     0.15100
H205        H  0.74260492  0.69487465  0.26932859     0.15100
C206        C  0.74304728  0.68144103  0.11718057    -0.23800
H207        H  0.67561515  0.77002464  0.22260913     0.05400
H208        H  0.70458484  0.77900476  0.30455328     0.08600
H209        H  0.66114055  0.73891518  0.29963384     0.08600
H210        H  0.76154321  0.69706675  0.07040744     0.08600
H211        H  0.72068233  0.65640205  0.09241847     0.08600
H212        H  0.75777284  0.67478497  0.15907271     0.05300
C213        C  0.29661889  0.33566733  0.64683023    -0.20500
C214        C  0.31936195  0.32580758  0.61512072    -0.07000
C215        C  0.32864639  0.30560026  0.66038828     0.13800
C216        C  0.32567371  0.30650565  0.74073656    -0.20500
C217        C  0.31549102  0.32883154  0.77324170    -0.07000
C218        C  0.29546347  0.33839250  0.72712619     0.13800
C219        C  0.27918426  0.35791918  0.76084680    -0.23900
H220        H  0.28708254  0.34901235  0.61111844     0.15100
H221        H  0.33890364  0.29687170  0.77682676     0.15100
C222        C  0.34745292  0.28880544  0.62500887    -0.23800
H223        H  0.25046251  0.34404160  0.74472058     0.05400
H224        H  0.29285203  0.38515213  0.73822356     0.08600
H225        H  0.28152239  0.35944579  0.82473738     0.08600
H226        H  0.37264206  0.30909934  0.59789166     0.08600
H227        H  0.32989679  0.26921982  0.58033846     0.08600
H228        H  0.35409704  0.27498827  0.66878201     0.05300
C229        C  0.49876729  0.51861401  0.42428642    -0.20500
C230        C  0.49476977  0.49946617  0.49114467    -0.07000
C231        C  0.52239603  0.51320202  0.54719712     0.13800
C232        C  0.55351745  0.54575712  0.53419880    -0.20500
C233        C  0.55759426  0.56467967  0.46672678    -0.07000
C234        C  0.52977934  0.55095785  0.41101036     0.13800
C235        C  0.53195478  0.57015082  0.33800604    -0.23900
H236        H  0.47728592  0.50821775  0.38186630     0.15100
H237        H  0.57498939  0.55630767  0.57666223     0.15100
C238        C  0.51979541  0.49355374  0.61949036    -0.23800
H239        H  0.53720271  0.59682611  0.35209435     0.05400
H240        H  0.50673927  0.55607719  0.30371944     0.08600
H241        H  0.55344012  0.57228571  0.30100679     0.08600
H242        H  0.49767048  0.49069195  0.65528941     0.08600
H243        H  0.54466993  0.50770358  0.65488053     0.08600
H244        H  0.51502771  0.46710863  0.60436876     0.05300
C245        C  0.70611086  0.58263034  0.91327691    -0.20500
C246        C  0.67656142  0.57679436  0.95575748    -0.07000
C247        C  0.65478950  0.54355889  0.98955706     0.13800
C248        C  0.66097548  0.51651594  0.97355083    -0.20500
C249        C  0.68816072  0.52020396  0.92373080    -0.07000
C250        C  0.71296874  0.55545166  0.89870199     0.13800
C251        C  0.74527397  0.56545198  0.85061682    -0.23900
H252        H  0.72355485  0.60846878  0.88917916     0.15100
H253        H  0.64414536  0.49234951  0.00321349     0.15100
C254        C  0.62365364  0.53519005  0.04065549    -0.23800
H255        H  0.74313423  0.57655571  0.79516929     0.05400
H256        H  0.74870709  0.54330015  0.83639777     0.08600
H257        H  0.76965014  0.58579108  0.88194228     0.08600
H258        H  0.60384660  0.53862014  0.00826975     0.08600
H259        H  0.63328417  0.55253851  0.09273989     0.08600
H260        H  0.60941346  0.50757422  0.06109371     0.05300
C261        C  0.75612666  0.49170808  0.05379487    -0.20500
C262        C  0.78231964  0.48902382  0.01401718    -0.07000
C263        C  0.77881164  0.48792454  0.93114943     0.13800
C264        C  0.75065391  0.48972372  0.89446093    -0.20500
C265        C  0.72415907  0.49178630  0.93575616    -0.07000
C266        C  0.72976868  0.49581808  0.01832290     0.13800
C267        C  0.70797280  0.50303657  0.07423803    -0.23900
H268        H  0.75538290  0.49022378  0.11553192     0.15100
H269        H  0.74948045  0.48905189  0.83229213     0.15100
C270        C  0.80392974  0.48492604  0.87742273    -0.23800
H271        H  0.71597165  0.50384429  0.13544456     0.05400
H272        H  0.67958995  0.48199947  0.07148778     0.08600
H273        H  0.71253854  0.52963307  0.06460112     0.08600
H274        H  0.81434656  0.50650218  0.83488740     0.08600
H275        H  0.82736757  0.48718904  0.90644130     0.08600
H276        H  0.78929252  0.45927720  0.84595987     0.05300
C277        C  0.49440212  0.35830982  0.05958295    -0.20500
C278        C  0.51838299  0.36049444  0.00302594    -0.07000
C279        C  0.50557727  0.35653210  0.92460478     0.13800
C280        C  0.47621525  0.36006931  0.90798581    -0.20500
C281        C  0.45767720  0.36579293  0.96572085    -0.07000
C282        C  0.46539914  0.36245910  0.04289466     0.13800
C283        C  0.44357471  0.36383163  0.10777797    -0.23900
H284        H  0.49881008  0.35429165  0.11786313     0.15100
H285        H  0.46865531  0.35996143  0.84834730     0.15100
C286        C  0.52204371  0.34967506  0.85585793    -0.23800
H287        H  0.45120356  0.35829251  0.16408638     0.05400
H288        H  0.41495545  0.34369949  0.09775075     0.08600
H289        H  0.44738493  0.39049189  0.11202412     0.08600
H290        H  0.52155308  0.32470842  0.86177731     0.08600
H291        H  0.54898745  0.37226028  0.84647809     0.08600
H292        H  0.50708691  0.34654007  0.80152696     0.05300
C293        C  0.62112243  0.44667678  0.90404711    -0.20500
C294        C  0.65468207  0.45150559  0.92414450    -0.07000
C295        C  0.65349140  0.42673017  0.97875702     0.13800
C296        C  0.62186848  0.40385923  0.01774928    -0.20500
C297        C  0.58883887  0.39961304  0.99840725    -0.07000
C298        C  0.58993434  0.42502604  0.94664095     0.13800
C299        C  0.56150243  0.43393058  0.93858611    -0.23900
H300        H  0.62033124  0.46442895  0.86292983     0.15100
H301        H  0.62218362  0.38545866  0.05789701     0.15100
C302        C  0.68195197  0.41852856  0.99467524    -0.23800
H303        H  0.57383914  0.46299774  0.94205694     0.05400
H304        H  0.54172976  0.42368536  0.98463618     0.08600
H305        H  0.54828103  0.42448564  0.88160260     0.08600
H306        H  0.69122734  0.42583518  0.05536746     0.08600
H307        H  0.70456284  0.43009998  0.95565187     0.08600
H308        H  0.67038015  0.38966659  0.98821812     0.05300
C309        C  0.57945643  0.30055360  0.92923689    -0.20500
C310        C  0.54991578  0.26701443  0.94495979    -0.07000
C311        C  0.51991829  0.26638386  0.97862631     0.13800
C312        C  0.52433077  0.29814957  0.00805463    -0.20500
C313        C  0.55418685  0.33176648  0.99091579    -0.07000
C314        C  0.57921012  0.33135696  0.93852439     0.13800
C315        C  0.60208690  0.35801446  0.87828992    -0.23900
H316        H  0.60180122  0.30236243  0.89916917     0.15100
H317        H  0.50312098  0.29680229  0.04211991     0.15100
C318        C  0.48230750  0.23483496  0.97872225    -0.23800
H319        H  0.59399182  0.34517222  0.82028985     0.05400
H320        H  0.63047622  0.36660677  0.88694371     0.08600
H321        H  0.59990040  0.38102961  0.87295911     0.08600
H322        H  0.47818420  0.21744651  0.02761366     0.08600
H323        H  0.47518280  0.22055145  0.92261153     0.08600
H324        H  0.46266002  0.24310744  0.98644683     0.05300
C325        C  0.62653603  0.21481276  0.97834584    -0.20500
C326        C  0.64556714  0.23873499  0.04188247    -0.07000
C327        C  0.63292781  0.26182588  0.05901644     0.13800
C328        C  0.60344598  0.25896593  0.01918044    -0.20500
C329        C  0.58531347  0.23556624  0.95636339    -0.07000
C330        C  0.59642573  0.21149678  0.93979782     0.13800
C331        C  0.57661261  0.18119482  0.88293912    -0.23900
H332        H  0.63557887  0.19843555  0.95462295     0.15100
H333        H  0.59393925  0.27523416  0.04097654     0.15100
C334        C  0.64998821  0.29144944  0.11609680    -0.23800
H335        H  0.55023659  0.16178645  0.90642989     0.05400
H336        H  0.59068311  0.16686590  0.87298006     0.08600
H337        H  0.57307882  0.18999583  0.82611293     0.08600
H338        H  0.67694496  0.31054239  0.09571648     0.08600
H339        H  0.64773378  0.28071852  0.17401348     0.08600
H340        H  0.63675150  0.30688066  0.12034365     0.05300
C341        C  0.77975752  0.39178557  0.97930751    -0.20500
C342        C  0.81132048  0.39213642  0.96078705    -0.07000
C343        C  0.84288871  0.42226470  0.99187587     0.13800
C344        C  0.84291524  0.45336348  0.00865488    -0.20500
C345        C  0.81155910  0.45248955  0.03180739    -0.07000
C346        C  0.77975372  0.41870055  0.02317363     0.13800
C347        C  0.74543349  0.40810721  0.06249239    -0.23900
H348        H  0.75405687  0.36895606  0.96637544     0.15100
H349        H  0.86873688  0.47712221  0.01369252     0.15100
C350        C  0.87274636  0.42084206  0.03132165    -0.23800
H351        H  0.72375813  0.39621470  0.01911384     0.05400
H352        H  0.73980157  0.38733850  0.10497005     0.08600
H353        H  0.74557897  0.42975593  0.09398931     0.08600
H354        H  0.89814173  0.43719997  0.00052839     0.08600
H355        H  0.86666501  0.39375663  0.04046555     0.08600
H356        H  0.87645584  0.43183409  0.09069325     0.05300
C357        C  0.77914529  0.31698793  0.02689194    -0.20500
C358        C  0.77550115  0.32602288  0.95094513    -0.07000
C359        C  0.73938525  0.30839964  0.92120303     0.13800
C360        C  0.71125622  0.28198762  0.96403661    -0.20500
C361        C  0.71532312  0.27119142  0.03749497    -0.07000
C362        C  0.75146960  0.28726168  0.06496937     0.13800
C363        C  0.76268414  0.27290523  0.13069135    -0.23900
H364        H  0.80504553  0.33200423  0.05495510     0.15100
H365        H  0.68536427  0.26914519  0.93684828     0.15100
C366        C  0.72742115  0.31827691  0.84850041    -0.23800
H367        H  0.79208111  0.28554537  0.13411346     0.05400
H368        H  0.75148867  0.24427559  0.12196992     0.08600
H369        H  0.75512357  0.27814049  0.18729498     0.08600
H370        H  0.73369145  0.30805995  0.79677376     0.08600
H371        H  0.73798868  0.34686431  0.84594538     0.08600
H372        H  0.69822926  0.30638304  0.84567290     0.05300
C373        C  0.70942286  0.55867868  0.53558352    -0.20500
C374        C  0.68182698  0.52532315  0.50563827    -0.07000
C375        C  0.65697888  0.52643762  0.45219926     0.13800
C376        C  0.65704544  0.55778117  0.44449243    -0.20500
C377        C  0.68227979  0.58948542  0.48047961    -0.07000
C378        C  0.70938907  0.59021757  0.52531876     0.13800
C379        C  0.73796807  0.62397425  0.56293954    -0.23900
H380        H  0.72984488  0.55960740  0.57256225     0.15100
H381        H  0.63677002  0.55748160  0.40780519     0.15100
C382        C  0.63121918  0.49825700  0.39548495    -0.23800
H383        H  0.75768111  0.62024440  0.59491212     0.05400
H384        H  0.72579461  0.63362378  0.60447728     0.08600
H385        H  0.75233807  0.64419790  0.51833792     0.08600
H386        H  0.60333507  0.48931989  0.41112190     0.08600
H387        H  0.63369484  0.47536771  0.38773887     0.08600
H388        H  0.63583839  0.50960536  0.33684794     0.05300
C389        C  0.67499971  0.50651021  0.76350089    -0.20500
C390        C  0.68619667  0.48545566  0.80061865    -0.07000
C391        C  0.68823007  0.46148257  0.74790492     0.13800
C392        C  0.68537359  0.46406786  0.66589454    -0.20500
C393        C  0.68028888  0.48976055  0.62930168    -0.07000
C394        C  0.67240435  0.50977866  0.68293341     0.13800
C395        C  0.65762340  0.53316558  0.66497612    -0.23900
H396        H  0.66540280  0.51998684  0.79808837     0.15100
H397        H  0.68805542  0.44578651  0.62911511     0.15100
C398        C  0.69159316  0.43129025  0.77402190    -0.23800
H399        H  0.63253332  0.52376647  0.69722315     0.05400
H400        H  0.65009504  0.53416332  0.60576312     0.08600
H401        H  0.67712335  0.56060009  0.68452767     0.08600
H402        H  0.69093912  0.42912959  0.83674396     0.08600
H403        H  0.71690404  0.43454668  0.75290936     0.08600
H404        H  0.66891049  0.40613512  0.75046900     0.05300
C405        C  0.81522076  0.51904138  0.27723039    -0.20500
C406        C  0.81268204  0.49175512  0.32336300    -0.07000
C407        C  0.80931524  0.46229069  0.28025728     0.13800
C408        C  0.80182396  0.45872469  0.19981346    -0.20500
C409        C  0.80671830  0.48695600  0.15368390    -0.07000
C410        C  0.81287292  0.51767478  0.19601991     0.13800
C411        C  0.81774495  0.55068818  0.15980185    -0.23900
H412        H  0.81938868  0.54262955  0.30569323     0.15100
H413        H  0.79827804  0.43531539  0.17192755     0.15100
C414        C  0.82043219  0.43746009  0.30921166    -0.23800
H415        H  0.84498936  0.57328487  0.17329296     0.05400
H416        H  0.79799286  0.55644267  0.18403557     0.08600
H417        H  0.81386283  0.54908207  0.09700772     0.08600
H418        H  0.83902374  0.44792336  0.35887661     0.08600
H419        H  0.83605659  0.43350264  0.26457058     0.08600
H420        H  0.79656513  0.41122096  0.32046546     0.05300
C421        C  0.75681858  0.49750598  0.39910326    -0.20500
C422        C  0.78408205  0.50129225  0.44902798    -0.07000
C423        C  0.77817411  0.50439502  0.52950321     0.13800
C424        C  0.74702378  0.50369523  0.55400008    -0.20500
C425        C  0.71902539  0.49806214  0.50355359    -0.07000
C426        C  0.72722843  0.49921446  0.42296599     0.13800
C427        C  0.70584062  0.50195650  0.35791457    -0.23900
H428        H  0.75727025  0.49211594  0.33891813     0.15100
H429        H  0.74529223  0.50823603  0.61442634     0.15100
C430        C  0.80381460  0.50827690  0.59267522    -0.23800
H431        H  0.71894971  0.50597315  0.30125163     0.05400
H432        H  0.70383765  0.52547859  0.36566472     0.08600
H433        H  0.67998770  0.47732437  0.35028385     0.08600
H434        H  0.83087799  0.53076076  0.58195594     0.08600
H435        H  0.80359494  0.48355316  0.59906369     0.08600
H436        H  0.79623981  0.51351869  0.64989982     0.05300
C437        C  0.69129496  0.26772038  0.30434378    -0.20500
C438        C  0.68159757  0.23535494  0.33943500    -0.07000
C439        C  0.68599254  0.21177321  0.28992315     0.13800
C440        C  0.68731550  0.21634806  0.21016354    -0.20500
C441        C  0.68594643  0.24362063  0.17148474    -0.07000
C442        C  0.69593732  0.27312700  0.22338819     0.13800
C443        C  0.71796628  0.31164508  0.20236438    -0.23900
H444        H  0.69600688  0.28963048  0.34107739     0.15100
H445        H  0.69298487  0.19896745  0.17860370     0.15100
C446        C  0.69373681  0.18334719  0.31237344    -0.23800
H447        H  0.70453248  0.32574418  0.22082730     0.05400
H448        H  0.72450898  0.31643535  0.14112418     0.08600
H449        H  0.74389634  0.32417713  0.23404105     0.08600
H450        H  0.67080761  0.15698255  0.29523429     0.08600
H451        H  0.70122090  0.18284582  0.37211617     0.08600
H452        H  0.71746879  0.18739109  0.28080392     0.05300
C453        C  0.79513585  0.33723759  0.69182318    -0.20500
C454        C  0.79545416  0.36616069  0.65800140    -0.07000
C455        C  0.79566187  0.39127768  0.71118664     0.13800
C456        C  0.80124075  0.38911620  0.79114330    -0.20500
C457        C  0.80224167  0.36062214  0.82405043    -0.07000
C458        C  0.79880016  0.33408679  0.77112335     0.13800
C459        C  0.79793095  0.30116457  0.79517013    -0.23900
H460        H  0.79411368  0.31723830  0.65398478     0.15100
H461        H  0.80328044  0.40969645  0.82840275     0.15100
C462        C  0.78760696  0.41942615  0.69145868    -0.23800
H463        H  0.79217583  0.28268505  0.74604532     0.05400
H464        H  0.77633846  0.28612815  0.83654914     0.08600
H465        H  0.82430588  0.30793346  0.81756518     0.08600
H466        H  0.77512412  0.41650156  0.63477193     0.08600
H467        H  0.81223004  0.44587972  0.69745698     0.08600
H468        H  0.76763881  0.41809001  0.73235672     0.05300
C469        C  0.83048400  0.43292647  0.54471770    -0.20500
C470        C  0.79906936  0.39995748  0.52851260    -0.07000
C471        C  0.77394468  0.40109087  0.47628934     0.13800
C472        C  0.78085459  0.43391289  0.44895551    -0.20500
C473        C  0.81342606  0.46623151  0.46011496    -0.07000
C474        C  0.83851265  0.46529241  0.51228078     0.13800
C475        C  0.87344691  0.49686275  0.54027596    -0.23900
H476        H  0.84973871  0.43340006  0.58473203     0.15100
H477        H  0.76094119  0.43407481  0.41211412     0.15100
C478        C  0.74023178  0.36963358  0.44233430    -0.23800
H479        H  0.88100863  0.49224034  0.59824074     0.05400
H480        H  0.87251846  0.52087628  0.54835739     0.08600
H481        H  0.89511777  0.50138374  0.50099023     0.08600
H482        H  0.71783658  0.35996678  0.48259797     0.08600
H483        H  0.74404898  0.34837500  0.42139791     0.08600
H484        H  0.73083108  0.37684907  0.39009053     0.05300
C485        C  0.76991281  0.30509259  0.49822954    -0.20500
C486        C  0.76456064  0.32953456  0.53904126    -0.07000
C487        C  0.72842309  0.31646863  0.55972887     0.13800
C488        C  0.70042004  0.28549892  0.52398671    -0.20500
C489        C  0.70579874  0.26369065  0.47220842    -0.07000
C490        C  0.74238252  0.27429581  0.46165204     0.13800
C491        C  0.75454975  0.25457581  0.41196724    -0.23900
H492        H  0.79618979  0.30930351  0.49473756     0.15100
H493        H  0.67397595  0.27900954  0.53850416     0.15100
C494        C  0.71804460  0.33407297  0.62028366    -0.23800
H495        H  0.78397113  0.26695735  0.41320186     0.05400
H496        H  0.74794324  0.25500204  0.35073877     0.08600
H497        H  0.74395587  0.22771581  0.43318097     0.08600
H498        H  0.72953316  0.36223993  0.60828753     0.08600
H499        H  0.72685723  0.33109267  0.67799175     0.08600
H500        H  0.68871747  0.32197444  0.62348906     0.05300
C501        C  0.51262422  0.35552885  0.48252117    -0.20500
C502        C  0.52125532  0.35644522  0.40319729    -0.07000
C503        C  0.49491313  0.35448351  0.35047495     0.13800
C504        C  0.46919715  0.36171558  0.37594978    -0.20500
C505        C  0.46463671  0.36617955  0.45348094    -0.07000
C506        C  0.48572464  0.36139308  0.50821279     0.13800
C507        C  0.48107400  0.36341025  0.59371970    -0.23900
H508        H  0.52951100  0.35372331  0.52559050     0.15100
H509        H  0.45163717  0.36303790  0.33367439     0.15100
C510        C  0.48911185  0.34242149  0.26817378    -0.23800
H511        H  0.49870718  0.35742617  0.62775121     0.05400
H512        H  0.45309027  0.34397034  0.60938628     0.08600
H513        H  0.48796428  0.39041379  0.61049602     0.08600
H514        H  0.50241776  0.32868566  0.24951208     0.08600
H515        H  0.49726867  0.36621074  0.23408990     0.08600
H516        H  0.46037290  0.32286063  0.25699325     0.05300
C517        C  0.56684500  0.39052964  0.25373251    -0.20500
C518        C  0.56418170  0.36106531  0.29145229    -0.07000
C519        C  0.56711189  0.33695024  0.24061726     0.13800
C520        C  0.56431096  0.33913009  0.15899947    -0.20500
C521        C  0.56056788  0.36540513  0.12132170    -0.07000
C522        C  0.56514134  0.39325531  0.17210075     0.13800
C523        C  0.56795105  0.42648415  0.14302266    -0.23900
H524        H  0.56779035  0.41106379  0.28959362     0.15100
H525        H  0.56664010  0.32007475  0.12485069     0.15100
C526        C  0.57542513  0.30948370  0.26546417    -0.23800
H527        H  0.57143394  0.44481705  0.19084873     0.05400
H528        H  0.54339235  0.42038349  0.11196570     0.08600
H529        H  0.59157774  0.44127106  0.10618169     0.08600
H530        H  0.55334563  0.28276974  0.24777248     0.08600
H531        H  0.58080683  0.30926868  0.32695246     0.08600
H532        H  0.59996498  0.31445169  0.23611996     0.05300
C533        C  0.58570218  0.41762990  0.46629562    -0.20500
C534        C  0.59113937  0.39510169  0.41797012    -0.07000
C535        C  0.62767461  0.40464587  0.41194490     0.13800
C536        C  0.65467485  0.43232495  0.45826082    -0.20500
C537        C  0.64908644  0.45547779  0.50413827    -0.07000
C538        C  0.61239882  0.44421705  0.51465962     0.13800
C539        C  0.59973231  0.46033765  0.57303494    -0.23900
H540        H  0.56037659  0.41579457  0.46622552     0.15100
H541        H  0.68086315  0.43595426  0.45638916     0.15100
C542        C  0.63935687  0.38549756  0.35924827    -0.23800
H543        H  0.57016932  0.44557762  0.57650815     0.05400
H544        H  0.60757101  0.48716530  0.55631654     0.08600
H545        H  0.60921934  0.45917890  0.63144995     0.08600
H546        H  0.63320154  0.38786002  0.29845852     0.08600
H547        H  0.62689329  0.35767391  0.37571909     0.08600
H548        H  0.66861472  0.39683357  0.36236496     0.05300
C549        C  0.58688505  0.25112352  0.69577316    -0.20500
C550        C  0.55711437  0.24817528  0.65590551    -0.07000
C551        C  0.53697788  0.25756977  0.70322746     0.13800
C552        C  0.53521082  0.25096262  0.78318786    -0.20500
C553        C  0.55986633  0.24471865  0.82255908    -0.07000
C554        C  0.58985178  0.25180634  0.77708554     0.13800
C555        C  0.62686611  0.26466452  0.80784694    -0.23900
H556        H  0.60989210  0.25574262  0.66411453     0.15100
H557        H  0.51510815  0.25233102  0.81576805     0.15100
C558        C  0.52216316  0.27963511  0.67551803    -0.23800
H559        H  0.64635866  0.28753300  0.77333867     0.05400
H560        H  0.63327382  0.24373858  0.80184053     0.08600
H561        H  0.63170682  0.27512098  0.86726332     0.08600
H562        H  0.50451420  0.28101624  0.71900273     0.08600
H563        H  0.50696219  0.27024992  0.62094259     0.08600
H564        H  0.54457429  0.30701387  0.66667048     0.05300
C565        C  0.59674737  0.25184327  0.45651656    -0.20500
C566        C  0.58194109  0.23626658  0.52889953    -0.07000
C567        C  0.59222029  0.21278264  0.55637043     0.13800
C568        C  0.62242476  0.21441066  0.52603410    -0.20500
C569        C  0.63723195  0.22958537  0.45327968    -0.07000
C570        C  0.61984617  0.24486477  0.41484126     0.13800
C571        C  0.61824985  0.24821420  0.32878266    -0.23900
H572        H  0.58662616  0.26578274  0.42546221     0.15100
H573        H  0.63338522  0.20190902  0.55977379     0.15100
C574        C  0.57280503  0.18537994  0.61741495    -0.23800
H575        H  0.59080595  0.24042047  0.31020965     0.05400
H576        H  0.62311970  0.22962782  0.29671026     0.08600
H577        H  0.63613679  0.27605734  0.31192732     0.08600
H578        H  0.54870140  0.18413464  0.63930053     0.08600
H579        H  0.59096533  0.19035394  0.66716604     0.08600
H580        H  0.56430820  0.15912012  0.59213953     0.05300
C581        C  0.52381393  0.26427100  0.46871183    -0.20500
C582        C  0.55053176  0.27067700  0.52377587    -0.07000
C583        C  0.57933108  0.30625501  0.53220598     0.13800
C584        C  0.57932584  0.33278456  0.48949816    -0.20500
C585        C  0.55510779  0.32655775  0.42789481    -0.07000
C586        C  0.52604203  0.29064895  0.41974102     0.13800
C587        C  0.49597685  0.27872591  0.36181857    -0.23900
H588        H  0.50078334  0.23803571  0.46180409     0.15100
H589        H  0.59893775  0.35894611  0.50832461     0.15100
C590        C  0.61117093  0.31780015  0.58559641    -0.23800
H591        H  0.47786331  0.24961202  0.36039533     0.05400
H592        H  0.50627062  0.28600996  0.30303205     0.08600
H593        H  0.47905522  0.28937177  0.37701654     0.08600
H594        H  0.63227372  0.34591289  0.57795092     0.08600
H595        H  0.62411329  0.30264758  0.57372419     0.08600
H596        H  0.60332169  0.31547689  0.64665927     0.05300
C597        C  0.64212385  0.13828448  0.06056526    -0.20500
C598        C  0.66720607  0.13633792  0.01573166    -0.07000
C599        C  0.69644456  0.16785074  0.98751016     0.13800
C600        C  0.70049889  0.20064968  0.00695506    -0.20500
C601        C  0.67567637  0.20341986  0.05367962    -0.07000
C602        C  0.64515984  0.17055058  0.07877585     0.13800
C603        C  0.61522015  0.16767796  0.12718176    -0.23900
H604        H  0.61905540  0.11399123  0.08014249     0.15100
H605        H  0.72346840  0.22395514  0.98458357     0.15100
C606        C  0.72398719  0.16708015  0.93780943    -0.23800
H607        H  0.61283756  0.15303663  0.18054216     0.05400
H608        H  0.58968618  0.15283504  0.09420718     0.08600
H609        H  0.61873537  0.19309998  0.14566560     0.08600
H610        H  0.71157684  0.15287820  0.88276061     0.08600
H611        H  0.73563988  0.15359605  0.96863430     0.08600
H612        H  0.74605565  0.19404078  0.92348851     0.05300
C613        C  0.49914821  0.17696580  0.86132812    -0.20500
C614        C  0.51941344  0.19848318  0.92547835    -0.07000
C615        C  0.50817193  0.18316443  0.00020814     0.13800
C616        C  0.47749484  0.14943941  0.00703429    -0.20500
C617        C  0.45777128  0.12914088  0.94280928    -0.07000
C618        C  0.46838203  0.14340791  0.86902667     0.13800
C619        C  0.44837943  0.12283598  0.79748461    -0.23900
H620        H  0.50784881  0.18507319  0.80347011     0.15100
H621        H  0.46966214  0.13794938  0.06369038     0.15100
C622        C  0.52795140  0.20078105  0.07458883    -0.23800
H623        H  0.46160760  0.13719272  0.74440923     0.05400
H624        H  0.42096596  0.11805251  0.79771867     0.08600
H625        H  0.44687885  0.09722594  0.79464466     0.08600
H626        H  0.53448600  0.22834510  0.07906317     0.08600
H627        H  0.55231949  0.19944054  0.07950964     0.08600
H628        H  0.51182750  0.18715846  0.12594655     0.05300
C629        C  0.54132819  0.05332049  0.84542199    -0.20500
C630        C  0.54174790  0.02259640  0.85865021    -0.07000
C631        C  0.50955507  0.99046547  0.87156742     0.13800
C632        C  0.47800046  0.99058948  0.87846933    -0.20500
C633        C  0.47837223  0.02215327  0.87402134    -0.07000
C634        C  0.50984677  0.05352044  0.85405234     0.13800
C635        C  0.51083429  0.08766199  0.84841727    -0.23900
H636        H  0.56629118  0.07793758  0.83660411     0.15100
H637        H  0.45361536  0.96648471  0.89337548     0.15100
C638        C  0.50826492  0.95637101  0.88453278    -0.23800
H639        H  0.53724247  0.10934050  0.82930314     0.05400
H640        H  0.50486984  0.09493161  0.90523304     0.08600
H641        H  0.49063874  0.08456283  0.80568776     0.08600
H642        H  0.53440810  0.95889596  0.87531768     0.08600
H643        H  0.48871956  0.93579689  0.84400901     0.08600
H644        H  0.49968478  0.94747099  0.94425602     0.05300
C645        C  0.68657426  0.19181146  0.51496303    -0.20500
C646        C  0.66558885  0.19412302  0.45568750    -0.07000
C647        C  0.63593976  0.16137311  0.42613131     0.13800
C648        C  0.63252996  0.12933620  0.44704451    -0.20500
C649        C  0.65537642  0.12783184  0.50108228    -0.07000
C650        C  0.68202414  0.15940407  0.53739656     0.13800
C651        C  0.70636914  0.15934805  0.59887660    -0.23900
H652        H  0.70683880  0.21532476  0.54473975     0.15100
H653        H  0.61076464  0.10482233  0.42289714     0.15100
C654        C  0.60721046  0.15891073  0.37273972    -0.23800
H655        H  0.72693173  0.18649332  0.61808094     0.05400
H656        H  0.72034965  0.14647665  0.57605238     0.08600
H657        H  0.69075233  0.14507604  0.65019289     0.08600
H658        H  0.61849193  0.17470078  0.32049860     0.08600
H659        H  0.59069260  0.16723875  0.40299551     0.08600
H660        H  0.58844436  0.13141756  0.35249938     0.05300
C661        C  0.69817671  0.99957241  0.72220876    -0.20500
C662        C  0.70702340  0.02958698  0.67919642    -0.07000
C663        C  0.73250567  0.06285824  0.71063022     0.13800
C664        C  0.73875179  0.06587626  0.79071575    -0.20500
C665        C  0.71789683  0.03637169  0.83663900    -0.07000
C666        C  0.70471216  0.00299682  0.80200099     0.13800
C667        C  0.68966319  0.97041901  0.84994964    -0.23900
H668        H  0.68055947  0.97356155  0.69724647     0.15100
H669        H  0.75270572  0.09185974  0.81756684     0.15100
C670        C  0.74847656  0.09533425  0.66200524    -0.23800
H671        H  0.70195134  0.95506425  0.83289188     0.05400
H672        H  0.66032700  0.95385198  0.84091377     0.08600
H673        H  0.69529762  0.97726091  0.91224879     0.08600
H674        H  0.72720532  0.09911208  0.63851397     0.08600
H675        H  0.76309591  0.09241220  0.61350747     0.08600
H676        H  0.76750815  0.11933511  0.69588565     0.05300
C677        C  0.46195836  0.14469905  0.57576473    -0.20500
C678        C  0.46503327  0.12889510  0.50923921    -0.07000
C679        C  0.49093627  0.15042772  0.45521772     0.13800
C680        C  0.51423510  0.18639960  0.47250766    -0.20500
C681        C  0.51523437  0.20216642  0.54519050    -0.07000
C682        C  0.48473965  0.18080939  0.59277644     0.13800
C683        C  0.46957183  0.19449604  0.65076262    -0.23900
H684        H  0.44032148  0.12855270  0.61442246     0.15100
H685        H  0.53292488  0.20208709  0.42860463     0.15100
C686        C  0.49466462  0.13604645  0.37917715    -0.23800
H687        H  0.44119088  0.17490609  0.66340274     0.05400
H688        H  0.46840481  0.21664254  0.62691472     0.08600
H689        H  0.48293554  0.19923070  0.70685889     0.08600
H690        H  0.46899006  0.12343548  0.34658459     0.08600
H691        H  0.50272626  0.11656267  0.38922468     0.08600
H692        H  0.51539882  0.15706094  0.34268067     0.05300
C693        C  0.35245909  0.05281756  0.27853787    -0.20500
C694        C  0.33837540  0.02056460  0.31616928    -0.07000
C695        C  0.31809981  0.98889491  0.27339340     0.13800
C696        C  0.31858098  0.99006208  0.19252245    -0.20500
C697        C  0.33919455  0.02228250  0.15510897    -0.07000
C698        C  0.35356009  0.05403430  0.19786890     0.13800
C699        C  0.37385424  0.08916547  0.15862206    -0.23900
H700        H  0.36771162  0.07713114  0.31171736     0.15100
H701        H  0.30726095  0.96569442  0.15931301     0.15100
C702        C  0.29957701  0.95384418  0.31306957    -0.23800
H703        H  0.38337217  0.11145644  0.20041863     0.05400
H704        H  0.35621100  0.09110485  0.11552551     0.08600
H705        H  0.39746832  0.09198219  0.12897719     0.08600
H706        H  0.27992925  0.95294755  0.35422846     0.08600
H707        H  0.31925455  0.95006223  0.34502669     0.08600
H708        H  0.28510192  0.93159716  0.27121991     0.05300
C709        C  0.53518636  0.05308374  0.66092401    -0.20500
C710        C  0.53414337  0.02109968  0.65813716    -0.07000
C711        C  0.50100196  0.98899973  0.65761258     0.13800
C712        C  0.46963783  0.98963504  0.64888683    -0.20500
C713        C  0.47126946  0.02169240  0.63950119    -0.07000
C714        C  0.50383841  0.05368465  0.65205859     0.13800
C715        C  0.50632765  0.08853030  0.64346996    -0.23900
H716        H  0.56076892  0.07768799  0.66097792     0.15100
H717        H  0.44450358  0.96507231  0.63938063     0.15100
C718        C  0.49842239  0.95389576  0.65888078    -0.23800
H719        H  0.53124130  0.11012296  0.67072146     0.05400
H720        H  0.48352027  0.08790629  0.67203783     0.08600
H721        H  0.50582734  0.09416999  0.58144592     0.08600
H722        H  0.52486324  0.95658196  0.66458164     0.08600
H723        H  0.48526494  0.93879053  0.60505871     0.08600
H724        H  0.48253831  0.93880294  0.70900735     0.05300
C725        C  0.51850164  0.88514201  0.38856750    -0.20500
C726        C  0.51896048  0.85591125  0.41994362    -0.07000
C727        C  0.54409037  0.86378927  0.48204857     0.13800
C728        C  0.56803960  0.89931269  0.50411326    -0.20500
C729        C  0.56801393  0.92744638  0.46869471    -0.07000
C730        C  0.54285592  0.92019571  0.41007738     0.13800
C731        C  0.54043394  0.94918729  0.37176204    -0.23900
H732        H  0.49897830  0.88043850  0.34447910     0.15100
H733        H  0.58684473  0.90533635  0.55113517     0.15100
C734        C  0.54578085  0.83685167  0.53119029    -0.23800
H735        H  0.51835624  0.93864859  0.32848589     0.05400
H736        H  0.56562842  0.96699474  0.34137169     0.08600
H737        H  0.53557737  0.96446618  0.41565461     0.08600
H738        H  0.56160083  0.82716127  0.50344306     0.08600
H739        H  0.51913782  0.81495225  0.54605320     0.08600
H740        H  0.55928559  0.84843586  0.58746516     0.05300
C741        C  0.54584969  0.65861847  0.48002953    -0.20500
C742        C  0.57913715  0.68802497  0.49892384    -0.07000
C743        C  0.58051734  0.71697271  0.53535853     0.13800
C744        C  0.54844877  0.71647335  0.54686088    -0.20500
C745        C  0.51435169  0.68812034  0.52118313    -0.07000
C746        C  0.51364989  0.65710123  0.49320183     0.13800
C747        C  0.48076267  0.62079389  0.48070775    -0.23900
H748        H  0.54506719  0.63566794  0.45591630     0.15100
H749        H  0.55023071  0.73914529  0.57460697     0.15100
C750        C  0.61566487  0.74866572  0.55991383    -0.23800
H751        H  0.48738826  0.59989247  0.47791481     0.05400
H752        H  0.46804359  0.61904433  0.42455690     0.08600
H753        H  0.46205647  0.61306254  0.52899431     0.08600
H754        H  0.63304107  0.76002086  0.50903202     0.08600
H755        H  0.62899257  0.74080756  0.60276806     0.08600
H756        H  0.61220923  0.76943892  0.58666085     0.05300
C757        C  0.45605821  0.75793748  0.45370441    -0.20500
C758        C  0.48759828  0.78487625  0.41899410    -0.07000
C759        C  0.51489198  0.77686012  0.41011937     0.13800
C760        C  0.51274435  0.74807377  0.44966113    -0.20500
C761        C  0.48348752  0.72493488  0.49645851    -0.07000
C762        C  0.45423636  0.73040138  0.49590408     0.13800
C763        C  0.42038116  0.70889784  0.54116485    -0.23900
H764        H  0.43162798  0.75804563  0.45020881     0.15100
H765        H  0.53358525  0.74281984  0.43902065     0.15100
C766        C  0.54598295  0.79682118  0.35699170    -0.23800
H767        H  0.41249745  0.72655234  0.56799926     0.05400
H768        H  0.42342049  0.69498820  0.58985598     0.08600
H769        H  0.39841273  0.68995433  0.50205350     0.08600
H770        H  0.56265044  0.82448654  0.37570238     0.08600
H771        H  0.53645793  0.79460958  0.29682035     0.08600
H772        H  0.56385244  0.78617172  0.35681796     0.05300
C773        C  0.38182118  0.53537394  0.47237769    -0.20500
C774        C  0.35413834  0.52970715  0.42042214    -0.07000
C775        C  0.33179906  0.49395710  0.39144286     0.13800
C776        C  0.33915279  0.46770491  0.41173916    -0.20500
C777        C  0.36668889  0.47444353  0.46275014    -0.07000
C778        C  0.38778933  0.50866318  0.49486789     0.13800
C779        C  0.41821140  0.51808402  0.55037282    -0.23900
H780        H  0.40072453  0.56125663  0.49434241     0.15100
H781        H  0.32319489  0.44137653  0.38699287     0.15100
C782        C  0.30073881  0.48188260  0.33619783    -0.23800
H783        H  0.43278702  0.54635640  0.56791934     0.05400
H784        H  0.43763232  0.51279148  0.52293527     0.08600
H785        H  0.40789413  0.50251682  0.60370576     0.08600
H786        H  0.31063253  0.48865031  0.27658585     0.08600
H787        H  0.28382867  0.49246017  0.35166786     0.08600
H788        H  0.28263276  0.45275839  0.33645771     0.05300
C789        C  0.40740384  0.62536490  0.38590339    -0.20500
C790        C  0.38101383  0.59843822  0.43176064    -0.07000
C791        C  0.38475258  0.60628638  0.51320157     0.13800
C792        C  0.41634875  0.63568318  0.54391463    -0.20500
C793        C  0.44529153  0.65966156  0.49815314    -0.07000
C794        C  0.43916545  0.65453511  0.41620821     0.13800
C795        C  0.46621740  0.67809724  0.35737942    -0.23900
H796        H  0.40405803  0.62374955  0.32421697     0.15100
H797        H  0.41763341  0.63991641  0.60532057     0.15100
C798        C  0.35624380  0.58419183  0.57081008    -0.23800
H799        H  0.46026937  0.66533323  0.29942056     0.05400
H800        H  0.49332030  0.68423086  0.37292555     0.08600
H801        H  0.46547511  0.70240892  0.35042193     0.08600
H802        H  0.34878035  0.55632072  0.56780371     0.08600
H803        H  0.33274936  0.58667909  0.56115554     0.08600
H804        H  0.36510092  0.59312887  0.63123147     0.05300
C805        C  0.26921152  0.57487337  0.42388991    -0.20500
C806        C  0.24926952  0.55182984  0.48493505    -0.07000
C807        C  0.26000852  0.52714702  0.50288192     0.13800
C808        C  0.29131343  0.53068670  0.47147656    -0.20500
C809        C  0.31408861  0.55780118  0.42122710    -0.07000
C810        C  0.30231051  0.58089392  0.39883857     0.13800
C811        C  0.32264357  0.61205628  0.34636403    -0.23900
H812        H  0.26015287  0.59027319  0.39536052     0.15100
H813        H  0.29878286  0.51240967  0.49052463     0.15100
C814        C  0.23943715  0.49539261  0.55183672    -0.23800
H815        H  0.32863341  0.63657475  0.37710092     0.05400
H816        H  0.30608338  0.60853446  0.29451810     0.08600
H817        H  0.34804010  0.61612189  0.32604783     0.08600
H818        H  0.21148399  0.47983495  0.53190940     0.08600
H819        H  0.24411789  0.50368718  0.61284823     0.08600
H820        H  0.24882924  0.47664568  0.54673371     0.05300
C821        C  0.25068931  0.65538423  0.48157532    -0.20500
C822        C  0.22463127  0.65468068  0.43171045    -0.07000
C823        C  0.19262689  0.62030756  0.42935012     0.13800
C824        C  0.19354442  0.58989351  0.44813501    -0.20500
C825        C  0.22163191  0.59103708  0.49166617    -0.07000
C826        C  0.25231811  0.62579708  0.50224229     0.13800
C827        C  0.28709801  0.63401293  0.54041307    -0.23900
H828        H  0.26834107  0.67864646  0.51466348     0.15100
H829        H  0.16953686  0.56507762  0.43458990     0.15100
C830        C  0.15520548  0.61345355  0.43533052    -0.23800
H831        H  0.30922809  0.64825996  0.49931306     0.05400
H832        H  0.28728547  0.61055017  0.55977248     0.08600
H833        H  0.29296238  0.65136261  0.59181230     0.08600
H834        H  0.13673739  0.59261994  0.39372618     0.08600
H835        H  0.15242037  0.63623354  0.42986154     0.08600
H836        H  0.14525044  0.60341686  0.49369539     0.05300
C837        C  0.39063641  0.87811514  0.46715447    -0.20500
C838        C  0.36251428  0.85182104  0.51200596    -0.07000
C839        C  0.33658179  0.85992806  0.53877366     0.13800
C840        C  0.34077843  0.89285660  0.52285035    -0.20500
C841        C  0.36992818  0.91872611  0.48182169    -0.07000
C842        C  0.39475585  0.91076739  0.45213200     0.13800
C843        C  0.42770029  0.93730180  0.40904864    -0.23900
H844        H  0.41254857  0.87573178  0.44926688     0.15100
H845        H  0.32162491  0.89886031  0.54559358     0.15100
C846        C  0.30437892  0.83537142  0.58625212    -0.23800
H847        H  0.44445491  0.92659453  0.39127515     0.05400
H848        H  0.44471089  0.96073358  0.44646796     0.08600
H849        H  0.41984051  0.94515144  0.35552220     0.08600
H850        H  0.30114405  0.80944107  0.59681118     0.08600
H851        H  0.27979184  0.83033546  0.55591829     0.08600
H852        H  0.30620878  0.84792962  0.64308146     0.05300
C853        C  0.39739031  0.81612157  0.42129339    -0.20500
C854        C  0.39668150  0.81887101  0.50258655    -0.07000
C855        C  0.42675635  0.82202440  0.54282209     0.13800
C856        C  0.45374409  0.82132231  0.50160824    -0.20500
C857        C  0.45472174  0.81888727  0.42031381    -0.07000
C858        C  0.42606981  0.81833654  0.38048140     0.13800
C859        C  0.42418876  0.82092438  0.29572993    -0.23900
H860        H  0.37542868  0.81421885  0.38826643     0.15100
H861        H  0.47506775  0.82248177  0.53454459     0.15100
C862        C  0.43241966  0.82569484  0.62859971    -0.23800
H863        H  0.40513496  0.82895373  0.27818827     0.05400
H864        H  0.41373160  0.79432889  0.27107852     0.08600
H865        H  0.45027338  0.84138779  0.27303994     0.08600
H866        H  0.41122106  0.80211306  0.65759319     0.08600
H867        H  0.43496517  0.85044877  0.64820156     0.08600
H868        H  0.45767847  0.82785546  0.64746570     0.05300
C869        C  0.30352524  0.78746973  0.45201467    -0.20500
C870        C  0.32871800  0.78364956  0.49664765    -0.07000
C871        C  0.32645797  0.75059958  0.48219610     0.13800
C872        C  0.29967737  0.72505815  0.43181908    -0.20500
C873        C  0.26833973  0.72505809  0.41318531    -0.07000
C874        C  0.27429210  0.75962518  0.41145954     0.13800
C875        C  0.25509524  0.77000020  0.35553751    -0.23900
H876        H  0.30679980  0.81274940  0.44280434     0.15100
H877        H  0.30197315  0.70302168  0.41342319     0.15100
C878        C  0.35178209  0.74033932  0.51423079    -0.23800
H879        H  0.23341665  0.77109263  0.38504233     0.05400
H880        H  0.27363034  0.79655253  0.33189669     0.08600
H881        H  0.24536922  0.75231210  0.30437441     0.08600
H882        H  0.37096292  0.75870038  0.55759387     0.08600
H883        H  0.36679605  0.73752846  0.46643655     0.08600
H884        H  0.33626117  0.71459205  0.54334652     0.05300
C885        C  0.51374962  0.88582811  0.05044547    -0.20500
C886        C  0.51450315  0.85766583  0.01284781    -0.07000
C887        C  0.54174587  0.86757654  0.95637129     0.13800
C888        C  0.56913792  0.90345159  0.95046514    -0.20500
C889        C  0.57015885  0.93017718  0.99622422    -0.07000
C890        C  0.54163227  0.92110373  0.04616096     0.13800
C891        C  0.53982469  0.94850532  0.09430316    -0.23900
H892        H  0.49185141  0.87957595  0.08857167     0.15100
H893        H  0.58979561  0.91090481  0.90807146     0.15100
C894        C  0.54143866  0.84288346  0.89543440    -0.23800
H895        H  0.51500416  0.93682570  0.12840169     0.05400
H896        H  0.54051983  0.96889189  0.05672611     0.08600
H897        H  0.56272374  0.96111137  0.13549630     0.08600
H898        H  0.51421356  0.82337385  0.87441886     0.08600
H899        H  0.55532340  0.82975194  0.91653664     0.08600
H900        H  0.55593607  0.85766612  0.84340640     0.05300
C901        C  0.51596563  0.84167644  0.16897559    -0.20500
C902        C  0.48595844  0.81512942  0.12711455    -0.07000
C903        C  0.46330545  0.78458205  0.17178226     0.13800
C904        C  0.46551615  0.78669447  0.25419430    -0.20500
C905        C  0.49151980  0.81728352  0.29582174    -0.07000
C906        C  0.52031899  0.84283825  0.24911228     0.13800
C907        C  0.55829531  0.87061115  0.27404908    -0.23900
H908        H  0.53916111  0.86113323  0.13854700     0.15100
H909        H  0.44621012  0.76412548  0.28669436     0.15100
C910        C  0.43864276  0.74887666  0.13486597    -0.23800
H911        H  0.57737164  0.86670745  0.24027598     0.05400
H912        H  0.56634320  0.87077539  0.33370985     0.08600
H913        H  0.56345858  0.89729125  0.26111650     0.08600
H914        H  0.42156785  0.74987757  0.08924857     0.08600
H915        H  0.42089634  0.72930343  0.17784647     0.08600
H916        H  0.45463582  0.73877419  0.10915741     0.05300
C917        C  0.57345898  0.70393050  0.89929432    -0.20500
C918        C  0.56812817  0.67689332  0.94846938    -0.07000
C919        C  0.53514148  0.65773407  0.98635646     0.13800
C920        C  0.50750144  0.66335391  0.96707081    -0.20500
C921        C  0.51159354  0.68992756  0.91583457    -0.07000
C922        C  0.54690481  0.71204702  0.88577628     0.13800
C923        C  0.55860629  0.74446723  0.83836974    -0.23900
H924        H  0.59908431  0.71952510  0.87177400     0.15100
H925        H  0.48233869  0.64516263  0.99158911     0.15100
C926        C  0.52791776  0.63022762  0.04588261    -0.23800
H927        H  0.58445596  0.76652510  0.86131937     0.05400
H928        H  0.54031377  0.75421784  0.84078304     0.02600
H929        H  0.56219461  0.73911151  0.77753148     0.08600
H930        H  0.54774192  0.64236501  0.09378037     0.08600
H931        H  0.52903986  0.60807240  0.01920101     0.08600
H932        H  0.50134651  0.61914429  0.07231117     0.05300
C933        C  0.48431825  0.72154631  0.75547335    -0.20500
C934        C  0.47930340  0.69221136  0.79735103    -0.07000
C935        C  0.47891749  0.66509596  0.75177099     0.13800
C936        C  0.47768856  0.66586291  0.67026058    -0.20500
C937        C  0.48024039  0.69420980  0.62806869    -0.07000
C938        C  0.48717628  0.72417933  0.67453534     0.13800
C939        C  0.50109863  0.76088833  0.64481340    -0.23900
H940        H  0.48806423  0.74438575  0.78631757     0.15100
H941        H  0.47595237  0.64408531  0.63850194     0.15100
C942        C  0.48102941  0.63537125  0.78666614    -0.23800
H943        H  0.51311723  0.78125750  0.69143119     0.05400
H944        H  0.47923365  0.76331712  0.62066323     0.08600
H945        H  0.52303654  0.76862114  0.60400627     0.08600
H946        H  0.47482877  0.61432840  0.74342006     0.08600
H947        H  0.46215805  0.62271282  0.83411847     0.08600
H948        H  0.50852724  0.64574427  0.80822523     0.05300
C949        C  0.50903636  0.75003154  0.97355387    -0.20500
C950        C  0.48072349  0.72671587  0.92288717    -0.07000
C951        C  0.45292650  0.73396309  0.91195633     0.13800
C952        C  0.45553899  0.76360741  0.94722097    -0.20500
C953        C  0.48438347  0.78786266  0.99549740    -0.07000
C954        C  0.51134244  0.77977593  0.00954052     0.13800
C955        C  0.54239639  0.80088839  0.06465862    -0.23900
H956        H  0.52948336  0.74462947  0.98871225     0.15100
H957        H  0.43273825  0.76601541  0.93854364     0.15100
C958        C  0.41876312  0.71050526  0.86604028    -0.23800
H959        H  0.53317073  0.79510261  0.12489468     0.05400
H960        H  0.55592600  0.82947272  0.05397192     0.08600
H961        H  0.56304371  0.79384077  0.05879506     0.08600
H962        H  0.40187981  0.68507561  0.89483459     0.08600
H963        H  0.42414671  0.70676144  0.80607664     0.08600
H964        H  0.40170661  0.72199926  0.86119799     0.05300
C965        C  0.33192849  0.49942793  0.01630507    -0.20500
C966        C  0.36153697  0.53474566  0.01625200    -0.07000
C967        C  0.39596823  0.53879232  0.00270395     0.13800
C968        C  0.39820265  0.50888428  0.98789243    -0.20500
C969        C  0.36834361  0.47499424  0.98479522    -0.07000
C970        C  0.33473780  0.47003851  0.99852928     0.13800
C971        C  0.30181426  0.43369841  0.99378164    -0.23900
H972        H  0.30578229  0.49439034  0.02790306     0.15100
H973        H  0.42381864  0.51197688  0.97529160     0.15100
C974        C  0.43156118  0.57320590  0.00042456    -0.23800
H975        H  0.27732351  0.43410217  0.00641286     0.05400
H976        H  0.30403234  0.41634912  0.03609817     0.08600
H977        H  0.29895194  0.42245578  0.93489345     0.08600
H978        H  0.43421552  0.58666742  0.94562204     0.08600
H979        H  0.45428462  0.56896619  0.00136249     0.08600
H980        H  0.43627644  0.59065901  0.05022879     0.05300
C981        C  0.38052668  0.56432416  0.17773038    -0.20500
C982        C  0.35108551  0.55960313  0.13389523    -0.07000
C983        C  0.31887684  0.54591255  0.17699326     0.13800
C984        C  0.32088040  0.55072219  0.25733839    -0.20500
C985        C  0.35190901  0.56079749  0.30214635    -0.07000
C986        C  0.38142876  0.56447524  0.25923059     0.13800
C987        C  0.41529929  0.56962655  0.29465761    -0.23900
H988        H  0.40412331  0.56937438  0.14860819     0.15100
H989        H  0.29582534  0.54197763  0.28506086     0.15100
C990        C  0.28099747  0.52196131  0.14673503    -0.23800
H991        H  0.41832778  0.54722342  0.27771555     0.05400
H992        H  0.41646727  0.57164277  0.35764899     0.08600
H993        H  0.43856616  0.59441557  0.27322372     0.08600
H994        H  0.27789220  0.51435457  0.08577405     0.08600
H995        H  0.26491716  0.53411680  0.15789805     0.08600
H996        H  0.26849107  0.49669968  0.17830068     0.05300
C997        C  0.38798346  0.60305319  0.92890807    -0.20500
C998        C  0.38566482  0.60187852  0.01068345    -0.07000
C999        C  0.41127811  0.63411731  0.04982169     0.13800
C1000       C  0.43885518  0.66191853  0.00697967    -0.20500
C1001       C  0.44238423  0.66117179  0.92545327    -0.07000
C1002       C  0.41257610  0.63231110  0.88644143     0.13800
C1003       C  0.40240283  0.62999717  0.80203514    -0.23900
H1004       H  0.37079291  0.57984062  0.89501664     0.15100
H1005       H  0.45952348  0.68446017  0.03923148     0.15100
C1006       C  0.41372541  0.64224362  0.13522980    -0.23800
H1007       H  0.37362344  0.62090730  0.79718684     0.05400
H1008       H  0.40627619  0.61029579  0.77128288     0.08600
H1009       H  0.41555949  0.65505503  0.77152595     0.08600
H1010       H  0.43818761  0.64438091  0.15966671     0.08600
H1011       H  0.39119689  0.62390107  0.17014352     0.08600
H1012       H  0.41578317  0.66801103  0.14390571     0.05300
C1013       C  0.22066545  0.53630193  0.75087185    -0.20500
C1014       C  0.23452907  0.56947152  0.78854953    -0.07000
C1015       C  0.23916932  0.59701215  0.73830189     0.13800
C1016       C  0.23290167  0.59032391  0.65832491    -0.20500
C1017       C  0.22254345  0.55816019  0.61917023    -0.07000
C1018       C  0.21091568  0.52942024  0.67217556     0.13800
C1019       C  0.18264002  0.49073762  0.65835396    -0.23900
H1020       H  0.21345551  0.51360099  0.78618082     0.15100
H1021       H  0.23183802  0.61038369  0.62819454     0.15100
C1022       C  0.24643612  0.63284814  0.76316483    -0.23800
H1023       H  0.15881100  0.48426189  0.69277927     0.05400
H1024       H  0.19231143  0.47360936  0.67915133     0.08600
H1025       H  0.17287789  0.48211049  0.59968068     0.08600
H1026       H  0.27467977  0.65043496  0.77835668     0.08600
H1027       H  0.22795834  0.63064270  0.80785663     0.08600
H1028       H  0.24210151  0.64723306  0.71661352     0.05300
C1029       C  0.27191578  0.57335916  0.99822564    -0.20500
C1030       C  0.26365124  0.56335845  0.91931255    -0.07000
C1031       C  0.28515386  0.55124352  0.88484777     0.13800
C1032       C  0.30778509  0.54530393  0.93230325    -0.20500
C1033       C  0.32054834  0.56205432  0.00517868    -0.07000
C1034       C  0.30362780  0.57990129  0.03329626     0.13800
C1035       C  0.31694723  0.60624294  0.09908395    -0.23900
H1036       H  0.25621026  0.58082247  0.03149198     0.15100
H1037       H  0.31948252  0.53155599  0.90651787     0.15100
C1038       C  0.28929117  0.54751402  0.79962436    -0.23800
H1039       H  0.32042974  0.63145584  0.07901418     0.05400
H1040       H  0.34268913  0.61243947  0.12156272     0.08600
H1041       H  0.29747587  0.59648713  0.14663771     0.08600
H1042       H  0.29219869  0.57024950  0.76750677     0.08600
H1043       H  0.26781172  0.52156742  0.77725837     0.08600
H1044       H  0.31437796  0.54811560  0.78750552     0.05300
C1045       C  0.20323769  0.67834939  0.16934974    -0.20500
C1046       C  0.23497179  0.69193910  0.12644609    -0.07000
C1047       C  0.26576594  0.70060808  0.17292053     0.13800
C1048       C  0.26388787  0.69984103  0.25535555    -0.20500
C1049       C  0.23135126  0.68534242  0.29679231    -0.07000
C1050       C  0.20066124  0.66869342  0.24714994     0.13800
C1051       C  0.16538806  0.63731539  0.26889318    -0.23900
H1052       H  0.17816095  0.66942743  0.14043276     0.15100
H1053       H  0.28865309  0.70969193  0.28650818     0.15100
C1054       C  0.30164300  0.71153610  0.14004392    -0.23800
H1055       H  0.14695602  0.62561311  0.21903018     0.05400
H1056       H  0.15074343  0.64380719  0.30964321     0.08600
H1057       H  0.16978269  0.61622900  0.28774375     0.08600
H1058       H  0.32181756  0.73847021  0.16123948     0.08600
H1059       H  0.30205971  0.71180620  0.07687160     0.08600
H1060       H  0.30973066  0.69293087  0.15909049     0.05300
C1061       C  0.26660223  0.66488796  0.96253160    -0.20500
C1062       C  0.23686481  0.65965253  0.00567681    -0.07000
C1063       C  0.21160717  0.62362116  0.02274344     0.13800
C1064       C  0.21078016  0.59652649  0.97910793    -0.20500
C1065       C  0.23663343  0.60194396  0.92358510    -0.07000
C1066       C  0.26796982  0.63670795  0.92688319     0.13800
C1067       C  0.30389658  0.64512421  0.89768735    -0.23900
H1068       H  0.28940416  0.69119781  0.95555291     0.15100
H1069       H  0.18998554  0.57025058  0.99350023     0.15100
C1070       C  0.18397861  0.61187083  0.08429856    -0.23800
H1071       H  0.31749340  0.67065502  0.86714767     0.05400
H1072       H  0.30194854  0.62475182  0.85745063     0.08600
H1073       H  0.32129856  0.64798629  0.94724023     0.08600
H1074       H  0.16719426  0.62294476  0.07407679     0.08600
H1075       H  0.19738546  0.61909335  0.14145087     0.08600
H1076       H  0.16537746  0.58284232  0.08530532     0.05300
C1077       C  0.33295318  0.86110434  0.89074648    -0.20500
C1078       C  0.36127762  0.85650875  0.91569518    -0.07000
C1079       C  0.38982224  0.88528526  0.95968078     0.13800
C1080       C  0.38905111  0.91598579  0.97180618    -0.20500
C1081       C  0.36206950  0.92054368  0.94281141    -0.07000
C1082       C  0.33348038  0.89273444  0.90183005     0.13800
C1083       C  0.30336929  0.89603429  0.87066523    -0.23900
H1084       H  0.31063136  0.83988721  0.85890217     0.15100
H1085       H  0.41108910  0.93784460  0.00302049     0.15100
C1086       C  0.42178740  0.88661468  0.99694703    -0.23800
H1087       H  0.28231509  0.87113374  0.84257210     0.05400
H1088       H  0.31356484  0.91708358  0.82697577     0.08600
H1089       H  0.29103812  0.90258615  0.91838403     0.08600
H1090       H  0.44147762  0.89016288  0.95364793     0.08600
H1091       H  0.41407047  0.86404895  0.03433733     0.08600
H1092       H  0.43698232  0.90975544  0.03629580     0.05300
C1093       C  0.36644505  0.84708896  0.75430847    -0.20500
C1094       C  0.35580490  0.81678559  0.79936173    -0.07000
C1095       C  0.34875716  0.78617724  0.75525355     0.13800
C1096       C  0.34687547  0.78601167  0.67287282    -0.20500
C1097       C  0.36179316  0.81747457  0.62961707    -0.07000
C1098       C  0.37493696  0.84899357  0.67592627     0.13800
C1099       C  0.40226722  0.88591350  0.65039002    -0.23900
H1100       H  0.37509399  0.87218923  0.78170945     0.15100
H1101       H  0.33594789  0.76102556  0.64338104     0.15100
C1102       C  0.34373302  0.75319066  0.79150046    -0.23800
H1103       H  0.42278028  0.89956532  0.69635896     0.05400
H1104       H  0.38970462  0.90165080  0.64102433     0.08600
H1105       H  0.41752118  0.88624614  0.59996683     0.08600
H1106       H  0.31699689  0.73028868  0.77574605     0.08600
H1107       H  0.34629086  0.75489216  0.85497622     0.08600
H1108       H  0.36432662  0.74815286  0.76949883     0.05300
C1109       C  0.45099913  0.83104049  0.92705248    -0.20500
C1110       C  0.44917618  0.81938068  0.00359992    -0.07000
C1111       C  0.41509906  0.80460191  0.03742983     0.13800
C1112       C  0.38525746  0.79766171  0.99233917    -0.20500
C1113       C  0.38866145  0.81609082  0.92351526    -0.07000
C1114       C  0.42343476  0.83281931  0.89046228     0.13800
C1115       C  0.43403653  0.85472710  0.81920333    -0.23900
H1116       H  0.47529805  0.84073084  0.89556709     0.15100
H1117       H  0.35999215  0.78130052  0.01883828     0.15100
C1118       C  0.40998165  0.80469344  0.12194759    -0.23800
H1119       H  0.46300243  0.86812446  0.80722467     0.05400
H1120       H  0.42806440  0.87588762  0.82476641     0.08600
H1121       H  0.42031985  0.83710666  0.76996770     0.08600
H1122       H  0.43541727  0.82418005  0.14965912     0.08600
H1123       H  0.39744181  0.77776183  0.14515169     0.08600
H1124       H  0.39193787  0.81437267  0.13558861     0.05300
C1125       C  0.28284517  0.75816313  0.04046281    -0.20500
C1126       C  0.26152348  0.72765431  0.99471100    -0.07000
C1127       C  0.26447277  0.73365682  0.91284235     0.13800
C1128       C  0.29226153  0.76550414  0.88341874    -0.20500
C1129       C  0.31988371  0.79139020  0.92974959    -0.07000
C1130       C  0.31076774  0.78997742  0.00969504     0.13800
C1131       C  0.32926245  0.82121171  0.06442678    -0.23900
H1132       H  0.27745932  0.75769836  0.10115273     0.15100
H1133       H  0.29223180  0.76965185  0.82244600     0.15100
C1134       C  0.23920436  0.70796544  0.85275549    -0.23800
H1135       H  0.31906491  0.81434064  0.12403369     0.05400
H1136       H  0.32448308  0.84216256  0.04580244     0.08600
H1137       H  0.35797605  0.83154130  0.06804126     0.08600
H1138       H  0.21220857  0.70325753  0.86021679     0.08600
H1139       H  0.24031459  0.68399468  0.85322544     0.08600
H1140       H  0.24655517  0.71787711  0.79310425     0.05300
C1141       C  0.13526455  0.66017366  0.95692498    -0.20500
C1142       C  0.12875425  0.68325389  0.99812006    -0.07000
C1143       C  0.15736987  0.71189891  0.03778686     0.13800
C1144       C  0.19087162  0.71488699  0.03932430    -0.20500
C1145       C  0.19649732  0.68842720  0.00804497    -0.07000
C1146       C  0.16790996  0.66194096  0.96016327     0.13800
C1147       C  0.16854090  0.63541770  0.90685148    -0.23900
H1148       H  0.11372904  0.63904225  0.92298037     0.15100
H1149       H  0.21217220  0.73656048  0.07224306     0.15100
C1150       C  0.15286416  0.73915137  0.07929764    -0.23800
H1151       H  0.15916757  0.63721197  0.84836558     0.05400
H1152       H  0.15022606  0.60838561  0.92835665     0.08600
H1153       H  0.19469335  0.63937153  0.89758897     0.08600
H1154       H  0.13392577  0.72681828  0.12733050     0.08600
H1155       H  0.14267215  0.75103276  0.03845627     0.08600
H1156       H  0.17848278  0.76068836  0.10435755     0.05300
C1157       C  0.91261721  0.56098996  0.09635139    -0.20500
C1158       C  0.91780718  0.58531398  0.04054733    -0.07000
C1159       C  0.88967074  0.57859147  0.99076292     0.13800
C1160       C  0.85642087  0.54738313  0.99869676    -0.20500
C1161       C  0.85072858  0.52066924  0.05150299    -0.07000
C1162       C  0.88076220  0.52838343  0.10049089     0.13800
C1163       C  0.88206508  0.50350587  0.15735305    -0.23900
H1164       H  0.93501717  0.56626836  0.13314257     0.15100
H1165       H  0.83509487  0.54500714  0.96348800     0.15100
C1166       C  0.89460936  0.60480517  0.93019188    -0.23800
H1167       H  0.90689291  0.50331370  0.14983887     0.05400
H1168       H  0.86087335  0.47584363  0.14930687     0.08600
H1169       H  0.88192971  0.51250518  0.21710615     0.08600
H1170       H  0.91528751  0.60823479  0.88885901     0.08600
H1171       H  0.90308509  0.63062155  0.95810488     0.08600
H1172       H  0.86959943  0.59607678  0.89697817     0.05300
C1173       C  0.89158877  0.34980845  0.96298856    -0.20500
C1174       C  0.91933570  0.38128986  0.93325892    -0.07000
C1175       C  0.91065902  0.40160008  0.88703445     0.13800
C1176       C  0.87465477  0.39168941  0.87866244    -0.20500
C1177       C  0.84598857  0.36173831  0.91540177    -0.07000
C1178       C  0.85534848  0.33816345  0.94997682     0.13800
C1179       C  0.83052499  0.29967589  0.96818215    -0.23900
H1180       H  0.89841332  0.33323640  0.99495976     0.15100
H1181       H  0.86921473  0.40948910  0.84800972     0.15100
C1182       C  0.93940273  0.43554663  0.85243643    -0.23800
H1183       H  0.84027440  0.28390482  0.93957756     0.05400
H1184       H  0.80309978  0.28803147  0.94665659     0.08600
H1185       H  0.83069603  0.29569807  0.03112815     0.08600
H1186       H  0.95557998  0.43010531  0.81244521     0.08600
H1187       H  0.95694959  0.45393408  0.89889077     0.08600
H1188       H  0.92808909  0.44880152  0.81938667     0.05300
C1189       C  0.12899576  0.50202151  0.88265496    -0.20500
C1190       C  0.12492828  0.47573678  0.93196400    -0.07000
C1191       C  0.15591418  0.47788262  0.96251070     0.13800
C1192       C  0.19004588  0.50665683  0.94364430    -0.20500
C1193       C  0.19468704  0.53492962  0.89738211    -0.07000
C1194       C  0.16248822  0.53154851  0.86630566     0.13800
C1195       C  0.16171242  0.55889366  0.81717637    -0.23900
H1196       H  0.10517958  0.50041064  0.85973365     0.15100
H1197       H  0.21291077  0.50694341  0.96752655     0.15100
C1198       C  0.15324043  0.44969220  0.01456413    -0.23800
H1199       H  0.13430758  0.55351555  0.80754152     0.05400
H1200       H  0.17217194  0.55939212  0.75976313     0.08600
H1201       H  0.17686197  0.58488078  0.84495602     0.08600
H1202       H  0.13756461  0.42354617  0.98526292     0.08600
H1203       H  0.14015887  0.44939183  0.06918477     0.08600
H1204       H  0.17991609  0.45423711  0.02968893     0.05300
C1205       C  0.05591232  0.53627043  0.11973252    -0.20500
C1206       C  0.02433683  0.50330661  0.11917433    -0.07000
C1207       C  0.99135866  0.50118010  0.12557681     0.13800
C1208       C  0.99035584  0.53209724  0.11846220    -0.20500
C1209       C  0.02188482  0.56480147  0.10963535    -0.07000
C1210       C  0.05493380  0.56714806  0.11613694     0.13800
C1211       C  0.08909466  0.60199576  0.11125881    -0.23900
H1212       H  0.08121937  0.53769203  0.11569645     0.15100
H1213       H  0.96505281  0.53049428  0.11382584     0.15100
C1214       C  0.95729528  0.46611098  0.13377755    -0.23800
H1215       H  0.11216821  0.59865512  0.11515466     0.05400
H1216       H  0.09089986  0.61980712  0.15866710     0.08600
H1217       H  0.08994165  0.61382737  0.05517767     0.08600
H1218       H  0.95897990  0.45293430  0.18627609     0.08600
H1219       H  0.95277338  0.44905299  0.08259238     0.08600
H1220       H  0.93411920  0.46931868  0.13980818     0.05300
C1221       C  0.15987245  0.69458777  0.51779481    -0.20500
C1222       C  0.13630277  0.69448105  0.46223440    -0.07000
C1223       C  0.14826915  0.70192234  0.38566809     0.13800
C1224       C  0.18046056  0.70428727  0.36564285    -0.20500
C1225       C  0.20095474  0.69722170  0.41798099    -0.07000
C1226       C  0.19225468  0.69699209  0.49766641     0.13800
C1227       C  0.21542708  0.69770966  0.56309718    -0.23900
H1228       H  0.15217840  0.69116716  0.57776020     0.15100
H1229       H  0.18848111  0.71075770  0.30687063     0.15100
C1230       C  0.12687160  0.70628112  0.32338209    -0.23800
H1231       H  0.20722742  0.70330847  0.61917321     0.05400
H1232       H  0.21273295  0.67172035  0.56893219     0.08600
H1233       H  0.24362624  0.71885914  0.55523035     0.08600
H1234       H  0.12241429  0.72784244  0.33973007     0.08600
H1235       H  0.10090648  0.68126821  0.31457345     0.08600
H1236       H  0.14073907  0.71309581  0.26726114     0.05300
C1237       C  0.89816130  0.59597664  0.46074223    -0.20500
C1238       C  0.92675896  0.59334047  0.43470735    -0.07000
C1239       C  0.91889559  0.56249581  0.39406295     0.13800
C1240       C  0.88353502  0.53350636  0.39080342    -0.20500
C1241       C  0.85431329  0.53412350  0.42337871    -0.07000
C1242       C  0.86215301  0.56828785  0.45022776     0.13800
C1243       C  0.83468056  0.57852565  0.46207316    -0.23900
H1244       H  0.90410983  0.62039581  0.48871256     0.15100
H1245       H  0.87877826  0.50940537  0.36381259     0.15100
C1246       C  0.94782754  0.55939961  0.35602059    -0.23800
H1247       H  0.84721139  0.60762164  0.46082166     0.05400
H1248       H  0.82220564  0.57060225  0.51907818     0.08600
H1249       H  0.81446587  0.56817937  0.41507035     0.08600
H1250       H  0.96797394  0.56267201  0.39928851     0.08600
H1251       H  0.96094308  0.58006242  0.31173862     0.08600
H1252       H  0.93710966  0.53335681  0.32697924     0.05300
C1253       C  0.05811288  0.73756985  0.73410423    -0.20500
C1254       C  0.02661518  0.71713950  0.69089131    -0.07000
C1255       C  0.99355888  0.70287548  0.72817470     0.13800
C1256       C  0.99287175  0.70231745  0.80894155    -0.20500
C1257       C  0.02449944  0.71454314  0.85141956    -0.07000
C1258       C  0.05744834  0.73577579  0.81486434     0.13800
C1259       C  0.09198199  0.75189659  0.86003121    -0.23900
H1260       H  0.08350448  0.74924102  0.70518514     0.15100
H1261       H  0.96753845  0.68666484  0.83757609     0.15100
C1262       C  0.95900314  0.68351729  0.68293013    -0.23800
H1263       H  0.11539600  0.76745398  0.82261770     0.05400
H1264       H  0.09473744  0.73096641  0.88739625     0.08600
H1265       H  0.09237210  0.76977635  0.90556223     0.08600
H1266       H  0.95666052  0.66043852  0.65205790     0.08600
H1267       H  0.95816236  0.70153904  0.64034615     0.08600
H1268       H  0.93556179  0.67378224  0.72094509     0.05300
C1269       C  0.86122242  0.37770137  0.60140556    -0.20500
C1270       C  0.83481201  0.37053849  0.54375156    -0.07000
C1271       C  0.84521773  0.36910074  0.46606188     0.13800
C1272       C  0.87656877  0.36891630  0.45173600    -0.20500
C1273       C  0.90016790  0.37234633  0.51062440    -0.07000
C1274       C  0.89271194  0.37782798  0.58651255     0.13800
C1275       C  0.91869460  0.38585687  0.65209632    -0.23900
H1276       H  0.85852701  0.38470152  0.65949673     0.15100
H1277       H  0.88308972  0.36684266  0.39251326     0.15100
C1278       C  0.82431837  0.36676220  0.39491825    -0.23800
H1279       H  0.90891246  0.39008045  0.70750162     0.05400
H1280       H  0.94458755  0.41021091  0.63989021     0.08600
H1281       H  0.92268573  0.36342630  0.65991392     0.08600
H1282       H  0.84112262  0.38970608  0.35790098     0.08600
H1283       H  0.79991243  0.36640948  0.40717056     0.08600
H1284       H  0.81669555  0.34224476  0.36191881     0.05300
C1285       C  0.11560951  0.48925946  0.53332098    -0.20500
C1286       C  0.10980088  0.46410026  0.47787363    -0.07000
C1287       C  0.13861718  0.46930747  0.43259165     0.13800
C1288       C  0.17326715  0.49883320  0.44781548    -0.20500
C1289       C  0.17977553  0.52437597  0.50580210    -0.07000
C1290       C  0.14885435  0.52007513  0.54431083     0.13800
C1291       C  0.14795526  0.54702677  0.59577371    -0.23900
H1292       H  0.09298803  0.48593444  0.56535532     0.15100
H1293       H  0.19501256  0.50186206  0.41326159     0.15100
C1294       C  0.13282708  0.44344942  0.36928095    -0.23800
H1295       H  0.13983306  0.53609504  0.65417318     0.05400
H1296       H  0.12753296  0.55220420  0.57316426     0.08600
H1297       H  0.17275387  0.57280334  0.59872071     0.08600
H1298       H  0.11380761  0.44255545  0.32557776     0.08600
H1299       H  0.12172476  0.41677554  0.39372853     0.08600
H1300       H  0.15810584  0.45084976  0.33990510     0.05300
C1301       C  0.97267554  0.31617401  0.16167891    -0.20500
C1302       C  0.00827818  0.33470812  0.13809534    -0.07000
C1303       C  0.03491701  0.34024766  0.19201973     0.13800
C1304       C  0.02726050  0.33811483  0.27082167    -0.20500
C1305       C  0.99369116  0.33088811  0.29411355    -0.07000
C1306       C  0.96514947  0.31570737  0.24031287     0.13800
C1307       C  0.92772087  0.30331486  0.26522817    -0.23900
H1308       H  0.95172475  0.30971545  0.11955514     0.15100
H1309       H  0.04896928  0.34839647  0.31267188     0.15100
C1310       C  0.07258400  0.35423613  0.16646329    -0.23800
H1311       H  0.90853339  0.29233573  0.21592938     0.05400
H1312       H  0.92641203  0.32552884  0.29097725     0.08600
H1313       H  0.91932897  0.28234526  0.30870373     0.08600
H1314       H  0.08335127  0.37995470  0.13755508     0.08600
H1315       H  0.07294896  0.33515283  0.12543843     0.08600
H1316       H  0.09048944  0.35813270  0.21598070     0.05300
C1317       C  0.03803109  0.51764159  0.56629382    -0.20500
C1318       C  0.00736464  0.49119659  0.52767362    -0.07000
C1319       C  0.97847247  0.49592084  0.51348260     0.13800
C1320       C  0.98246844  0.52836408  0.53164875    -0.20500
C1321       C  0.01453794  0.55599616  0.56242360    -0.07000
C1322       C  0.04213406  0.55037549  0.58340578     0.13800
C1323       C  0.07674765  0.57887471  0.61942658    -0.23900
H1324       H  0.05966246  0.51350447  0.57920410     0.15100
H1325       H  0.96116424  0.53286716  0.51728920     0.15100
C1326       C  0.94335301  0.46783706  0.47851690    -0.23800
H1327       H  0.09891884  0.58542801  0.57986130     0.05400
H1328       H  0.08155351  0.56940559  0.67449486     0.08600
H1329       H  0.07697230  0.60343583  0.63209413     0.08600
H1330       H  0.94260754  0.44323678  0.46492751     0.08600
H1331       H  0.93810041  0.47756796  0.42434571     0.08600
H1332       H  0.92156513  0.46139286  0.51953160     0.05300
loop_ 
_geom_bond_atom_site_label_1 
_geom_bond_atom_site_label_2 
_geom_bond_distance 
_geom_bond_site_symmetry_2 
_ccdc_geom_bond_type 
In1           O3   2.196   1_455  S
In1           O4   2.250   1_455  S
In1          O12   2.240   1_455  S
In1           O6   2.175   1_455  S
In1           O8   2.199       .  S
In1           O9   2.234       .  S
In1          O10   2.201       .  S
In1          O13   2.225       .  S
C2            O8   1.276       .  A
C2           O10   1.271       .  A
C2         C1318   1.461       .  S
O3           C11   1.269       .  A
O4           C11   1.279       .  A
C5           O12   1.273       .  A
C5            O6   1.270       .  A
C5         C1305   1.465       .  S
C7            O9   1.278       .  A
C7           O13   1.269       .  A
C7         C1286   1.480       .  S
C11        C1273   1.495       .  S
In14         O16   2.297   1_455  S
In14         O17   2.250   1_455  S
In14         O25   2.275       .  S
In14         O19   2.178       .  S
In14         O21   2.242       .  S
In14         O22   2.290       .  S
In14         O23   2.188       .  S
In14         O26   2.249       .  S
C15          O21   1.262       .  A
C15          O23   1.258       .  A
C15        C1321   1.452       .  S
O16          C24   1.270       .  A
O17          C24   1.258       .  A
C18          O25   1.269       .  A
C18          O19   1.260       .  A
C18        C1254   1.466       .  S
C20          O22   1.272       .  A
C20          O26   1.260       .  A
C20        C1222   1.510       .  S
C24        C1238   1.497       .  S
In27         O29   2.249       .  S
In27         O30   2.266   1_554  S
In27         O38   2.269       .  S
In27         O32   2.183       .  S
In27         O34   2.265       .  S
In27         O35   2.291   1_454  S
In27         O36   2.215       .  S
In27         O39   2.232   1_455  S
C28          O34   1.259       .  A
C28          O36   1.257       .  A
C28        C1206   1.463       .  S
O29          C37   1.258   1_554  A
O30          C37   1.269       .  A
C31          O38   1.266       .  A
C31          O32   1.261       .  A
C31        C1302   1.466       .  S
C33          O35   1.269       .  A
C33          O39   1.258   1_556  A
C33        C1174   1.490       .  S
C37        C1190   1.492       .  S
In40         O42   2.170   1_554  S
In40         O43   2.238       .  S
In40         O51   2.241   1_554  S
In40         O45   2.158   1_554  S
In40         O47   2.194       .  S
In40         O48   2.211   1_455  S
In40         O49   2.231       .  S
In40         O52   2.172   1_454  S
C41          O47   1.273       .  A
C41          O49   1.275       .  A
C41        C1209   1.469       .  S
O42          C50   1.272   1_556  A
O43          C50   1.278       .  A
C44          O51   1.276       .  A
C44          O45   1.270       .  A
C44        C1257   1.464       .  S
C46          O48   1.279       .  A
C46          O52   1.270   1_554  A
C46        C1158   1.461       .  S
C50        C1142   1.487   1_554  S
C53        C1078   1.578       .  S
C53        C1094   1.616       .  S
C53        C1113   1.592       .  S
C53        C1129   1.599       .  S
C54        C1046   1.618       .  S
C54        C1062   1.590       .  S
C54        C1126   1.592   1_554  S
C54        C1145   1.588       .  S
C55        C1014   1.599       .  S
C55        C1030   1.604       .  S
C55        C1065   1.602       .  S
C55        C1193   1.600       .  S
C56         C966   1.591       .  S
C56         C982   1.587       .  S
C56         C998   1.594       .  S
C56        C1033   1.589       .  S
C57         C921   1.593       .  S
C57         C934   1.592       .  S
C57         C950   1.584       .  S
C57        C1001   1.596       .  S
C58         C886   1.590       .  S
C58         C902   1.610       .  S
C58         C953   1.580   1_554  S
C58        C1110   1.600       .  S
C59         C838   1.591       .  S
C59         C854   1.594       .  S
C59         C870   1.612       .  S
C59        C1097   1.606       .  S
C60         C822   1.630       .  S
C60         C873   1.610       .  S
C60        C1049   1.621       .  S
C60        C1225   1.596       .  S
C61         C806   1.624       .  S
C61         C825   1.616       .  S
C61        C1017   1.626       .  S
C61        C1289   1.571       .  S
C62         C774   1.596       .  S
C62         C790   1.603       .  S
C62         C809   1.586       .  S
C62         C985   1.596       .  S
C63         C745   1.592       .  S
C63         C761   1.581       .  S
C63         C793   1.594       .  S
C63         C937   1.602       .  S
C64         C726   1.576       .  S
C64         C758   1.593       .  S
C64         C857   1.605       .  S
C64         C905   1.597       .  S
In65         O67   2.202       .  S
In65         O68   2.207       .  S
In65         O76   2.245       .  S
In65         O70   2.157       .  S
In65         O72   2.162       .  S
In65         O73   2.228   1_545  S
In65         O74   2.235       .  S
In65         O77   2.164   1_545  S
C66          O72   1.272       .  A
C66          O74   1.279       .  A
C66         C713   1.463       .  S
O67          C75   1.271       .  A
O68          C75   1.279       .  A
C69          O76   1.278       .  A
C69          O70   1.269       .  A
C69         C694   1.465       .  S
C71          O73   1.278       .  A
C71          O77   1.270       .  A
C71         C841   1.484       .  S
C75         C678   1.487       .  S
In78         O80   2.254       .  S
In78         O81   2.238       .  S
In78         O89   2.269       .  S
In78         O83   2.190       .  S
In78         O85   2.209       .  S
In78         O86   2.225   1_545  S
In78         O87   2.261       .  S
In78         O90   2.259   1_545  S
C79          O85   1.258       .  A
C79          O87   1.262       .  A
C79         C710   1.462       .  S
O80          C88   1.267       .  A
O81          C88   1.259       .  A
C82          O89   1.265       .  A
C82          O83   1.262       .  A
C82         C662   1.467       .  S
C84          O86   1.259       .  A
C84          O90   1.267       .  A
C84         C729   1.481       .  S
C88         C649   1.486       .  S
In91         O93   2.149   1_546  S
In91         O94   2.250   1_545  S
In91        O102   2.246   1_556  S
In91         O96   2.164   1_556  S
In91         O98   2.186       .  S
In91         O99   2.237       .  S
In91        O100   2.225       .  S
In91        O103   2.173   1_556  S
C92          O98   1.272       .  A
C92         O100   1.273       .  A
C92         C633   1.460       .  S
O93         C101   1.268   1_554  A
O94         C101   1.280       .  A
C95         O102   1.275       .  A
C95          O96   1.268       .  A
C95         C697   1.464       .  S
C97          O99   1.280       .  A
C97         O103   1.268   1_556  A
C97         C617   1.482       .  S
C101       C1081   1.480       .  S
In104       O106   2.228   1_545  S
In104       O107   2.263   1_546  S
In104       O115   2.267       .  S
In104       O109   2.174       .  S
In104       O111   2.247       .  S
In104       O112   2.273   1_556  S
In104       O113   2.190       .  S
In104       O116   2.233       .  S
C105        O111   1.265       .  A
C105        O113   1.259       .  A
C105        C630   1.455       .  S
O106        C114   1.262       .  A
O107        C114   1.273   1_554  A
C108        O115   1.267       .  A
C108        O109   1.264       .  A
C108        C665   1.467       .  S
C110        O112   1.271   1_556  A
C110        O116   1.259       .  A
C110        C598   1.488   1_556  S
C114        C889   1.490       .  S
C117        C550   1.602       .  S
C117        C566   1.594       .  S
C117        C582   1.573       .  S
C117        C681   1.605       .  S
C118        C502   1.599       .  S
C118        C518   1.607       .  S
C118        C534   1.611       .  S
C118        C585   1.597       .  S
C119        C454   1.591       .  S
C119        C470   1.592       .  S
C119        C486   1.594       .  S
C119       C1270   1.611       .  S
C120        C438   1.590       .  S
C120        C489   1.602       .  S
C120        C569   1.596       .  S
C120        C646   1.567       .  S
C121        C406   1.616       .  S
C121        C422   1.605       .  S
C121        C473   1.587       .  S
C121       C1241   1.587       .  S
C122        C374   1.580       .  S
C122        C393   1.627       .  S
C122        C425   1.613       .  S
C122        C537   1.595       .  S
C123        C342   1.610       .  S
C123        C358   1.587       .  S
C123        C457   1.584       .  S
C123       C1177   1.594       .  S
C124        C326   1.637       .  S
C124        C361   1.587       .  S
C124        C441   1.631       .  S
C124        C601   1.594       .  S
C125        C310   1.575       .  S
C125        C329   1.592       .  S
C125        C553   1.606       .  S
C125        C614   1.572       .  S
C126        C278   1.589       .  S
C126        C297   1.571   1_554  S
C126        C313   1.581   1_554  S
C126        C521   1.630       .  S
C127        C262   1.606       .  S
C127        C345   1.597       .  S
C127        C409   1.607       .  S
C127       C1161   1.581       .  S
C128        C249   1.591       .  S
C128        C265   1.597       .  S
C128        C294   1.594       .  S
C128        C390   1.639       .  S
In129       O131   2.216       .  S
In129       O132   2.226       .  S
In129       O140   2.240       .  S
In129       O134   2.168       .  S
In129       O136   2.207       .  S
In129       O137   2.252       .  S
In129       O138   2.166       .  S
In129       O141   2.209       .  S
C130        O136   1.276       .  A
C130        O138   1.271       .  A
C130        C230   1.468       .  S
O131        C139   1.266       .  A
O132        C139   1.279       .  A
C133        O140   1.269       .  A
C133        O134   1.270       .  A
C133        C214   1.462       .  S
C135        O137   1.277       .  A
C135        O141   1.267       .  A
C135        C777   1.489       .  S
C139        C505   1.494       .  S
In142       O144   2.185       .  S
In142       O145   2.283       .  S
In142       O153   2.262       .  S
In142       O147   2.165       .  S
In142       O149   2.196       .  S
In142       O150   2.188       .  S
In142       O151   2.204       .  S
In142       O154   2.286       .  S
C143        O149   1.270       .  A
C143        O151   1.269       .  A
C143        C233   1.468       .  S
O144        C152   1.264       .  A
O145        C152   1.279       .  A
C146        O153   1.272       .  A
C146        O147   1.263       .  A
C146        C201   1.464       .  S
C148        O150   1.263       .  A
C148        O154   1.279       .  A
C148        C742   1.488       .  S
C152        C377   1.492       .  S
In155       O157   2.267       .  S
In155       O158   2.227       .  S
In155       O166   2.266       .  S
In155       O160   2.183       .  S
In155       O162   2.204       .  S
In155       O163   2.225       .  S
In155       O164   2.259       .  S
In155       O167   2.260       .  S
C156        O162   1.259       .  A
C156        O164   1.264       .  A
C156        C182   1.461       .  S
O157        C165   1.267       .  A
O158        C165   1.258       .  A
C159        O166   1.264       .  A
C159        O160   1.262       .  A
C159        C217   1.463       .  S
C161        O163   1.261       .  A
C161        O167   1.268       .  A
C161        C281   1.495       .  S
C165        C969   1.475       .  S
In168       O170   2.190   1_556  S
In168       O171   2.239       .  S
In168       O179   2.244       .  S
In168       O173   2.162   1_556  S
In168       O175   2.182       .  S
In168       O176   2.238       .  S
In168       O177   2.226       .  S
In168       O180   2.168   1_556  S
C169        O175   1.273       .  A
C169        O177   1.278       .  A
C169        C185   1.466       .  S
O170        C178   1.271   1_554  A
O171        C178   1.279       .  A
C172        O179   1.277   1_554  A
C172        O173   1.270       .  A
C172        C198   1.466       .  S
C174        O176   1.279       .  A
C174        O180   1.270   1_556  A
C174        C246   1.486       .  S
C178        C918   1.495       .  S
C181        C182   1.395       .  A
C181        C186   1.398       .  A
C181        H188   1.085       .  S
C182        C183   1.408       .  A
C183        C190   1.501       .  S
C183        C184   1.405       .  A
C184        C185   1.401       .  A
C184        H189   1.084       .  S
C185        C186   1.410       .  A
C186        C187   1.498       .  S
C187        H191   1.107       .  S
C187        H192   1.107       .  S
C187        H193   1.110       .  S
C190        H194   1.110       .  S
C190        H195   1.110       .  S
C190        H196   1.110       .  S
C197        C198   1.401       .  A
C197        C202   1.403       .  A
C197        H204   1.084       .  S
C198        C199   1.411       .  A
C199        C206   1.507       .  S
C199        C200   1.404       .  A
C200        C201   1.402       .  A
C200        H205   1.085       .  S
C201        C202   1.410       .  A
C202        C203   1.506       .  S
C203        H207   1.111       .  S
C203        H208   1.110       .  S
C203        H209   1.110       .  S
C206        H210   1.110       .  S
C206        H211   1.110       .  S
C206        H212   1.111       .  S
C213        C214   1.400       .  A
C213        C218   1.401       .  A
C213        H220   1.085       .  S
C214        C215   1.409       .  A
C215        C222   1.506       .  S
C215        C216   1.404       .  A
C216        C217   1.402       .  A
C216        H221   1.084       .  S
C217        C218   1.409       .  A
C218        C219   1.503       .  S
C219        H223   1.110       .  S
C219        H224   1.111       .  S
C219        H225   1.111       .  S
C222        H226   1.111       .  S
C222        H227   1.110       .  S
C222        H228   1.111       .  S
C229        C230   1.402       .  A
C229        C234   1.394       .  A
C229        H236   1.084       .  S
C230        C231   1.412       .  A
C231        C238   1.506       .  S
C231        C232   1.400       .  A
C232        C233   1.405       .  A
C232        H237   1.084       .  S
C233        C234   1.413       .  A
C234        C235   1.510       .  S
C235        H239   1.109       .  S
C235        H240   1.111       .  S
C235        H241   1.110       .  S
C238        H242   1.109       .  S
C238        H243   1.111       .  S
C238        H244   1.111       .  S
C245        C246   1.402       .  A
C245        C250   1.413       .  A
C245        H252   1.084       .  S
C246        C247   1.411       .  A
C247        C254   1.514   1_556  S
C247        C248   1.392       .  A
C248        C249   1.420       .  A
C248        H253   1.073   1_556  S
C249        C250   1.438       .  A
C250        C251   1.509       .  S
C251        H255   1.111       .  S
C251        H256   1.099       .  S
C251        H257   1.110       .  S
C254        H258   1.110       .  S
C254        H259   1.110       .  S
C254        H260   1.111       .  S
C261        C262   1.405       .  A
C261        C266   1.404       .  A
C261        H268   1.074       .  S
C262        C263   1.443   1_554  A
C263        C270   1.509       .  S
C263        C264   1.428       .  A
C264        C265   1.416       .  A
C264        H269   1.079       .  S
C265        C266   1.446   1_556  A
C266        C267   1.515       .  S
C267        H271   1.111       .  S
C267        H272   1.102       .  S
C267        H273   1.107       .  S
C270        H274   1.111       .  S
C270        H275   1.100       .  S
C270        H276   1.109       .  S
C277        C278   1.413       .  A
C277        C282   1.410       .  A
C277        H284   1.063       .  S
C278        C279   1.443   1_554  A
C279        C286   1.510       .  S
C279        C280   1.409       .  A
C280        C281   1.400       .  A
C280        H285   1.084       .  S
C281        C282   1.407   1_556  A
C282        C283   1.507       .  S
C283        H287   1.102       .  S
C283        H288   1.110       .  S
C283        H289   1.110       .  S
C286        H290   1.106       .  S
C286        H291   1.096       .  S
C286        H292   1.111       .  S
C293        C294   1.417       .  A
C293        C298   1.415       .  A
C293        H300   1.083       .  S
C294        C295   1.441       .  A
C295        C302   1.501       .  S
C295        C296   1.405   1_556  A
C296        C297   1.402   1_554  A
C296        H301   1.085       .  S
C297        C298   1.432       .  A
C298        C299   1.503       .  S
C299        H303   1.111       .  S
C299        H304   1.098       .  S
C299        H305   1.105       .  S
C302        H306   1.109   1_556  S
C302        H307   1.093       .  S
C302        H308   1.111       .  S
C309        C310   1.405       .  A
C309        C314   1.385       .  A
C309        H316   1.082       .  S
C310        C311   1.434       .  A
C311        C318   1.510       .  S
C311        C312   1.413   1_556  A
C312        C313   1.418   1_554  A
C312        H317   1.084       .  S
C313        C314   1.440       .  A
C314        C315   1.517       .  S
C315        H319   1.113       .  S
C315        H320   1.107       .  S
C315        H321   1.082       .  S
C318        H322   1.104   1_556  S
C318        H323   1.107       .  S
C318        H324   1.111       .  S
C325        C326   1.443   1_556  A
C325        C330   1.416       .  A
C325        H332   1.077       .  S
C326        C327   1.431       .  A
C327        C334   1.488       .  S
C327        C328   1.411       .  A
C328        C329   1.417   1_554  A
C328        H333   1.075       .  S
C329        C330   1.419       .  A
C330        C331   1.512       .  S
C331        H335   1.106       .  S
C331        H336   1.110       .  S
C331        H337   1.104       .  S
C334        H338   1.100       .  S
C334        H339   1.099       .  S
C334        H340   1.111       .  S
C341        C342   1.420       .  A
C341        C346   1.414   1_556  A
C341        H348   1.073       .  S
C342        C343   1.430       .  A
C343        C350   1.508   1_556  S
C343        C344   1.411   1_556  A
C344        C345   1.421       .  A
C344        H349   1.075       .  S
C345        C346   1.426       .  A
C346        C347   1.498       .  S
C347        H351   1.100       .  S
C347        H352   1.111       .  S
C347        H353   1.101       .  S
C350        H354   1.108       .  S
C350        H355   1.103       .  S
C350        H356   1.110       .  S
C357        C358   1.414   1_554  A
C357        C362   1.418       .  A
C357        H364   1.083       .  S
C358        C359   1.444       .  A
C359        C366   1.518       .  S
C359        C360   1.405       .  A
C360        C361   1.409   1_556  A
C360        H365   1.074       .  S
C361        C362   1.436       .  A
C362        C363   1.512       .  S
C363        H367   1.109       .  S
C363        H368   1.108       .  S
C363        H369   1.101       .  S
C366        H370   1.103       .  S
C366        H371   1.104       .  S
C366        H372   1.105       .  S
C373        C374   1.428       .  A
C373        C378   1.417       .  A
C373        H380   1.083       .  S
C374        C375   1.449       .  A
C375        C382   1.517       .  S
C375        C376   1.401       .  A
C376        C377   1.396       .  A
C376        H381   1.087       .  S
C377        C378   1.405       .  A
C378        C379   1.503       .  S
C379        H383   1.111       .  S
C379        H384   1.110       .  S
C379        H385   1.110       .  S
C382        H386   1.111       .  S
C382        H387   1.087       .  S
C382        H388   1.112       .  S
C389        C390   1.423       .  A
C389        C394   1.417       .  A
C389        H396   1.077       .  S
C390        C391   1.438       .  A
C391        C398   1.500       .  S
C391        C392   1.439       .  A
C392        C393   1.428       .  A
C392        H397   1.084       .  S
C393        C394   1.447       .  A
C394        C395   1.521       .  S
C395        H399   1.112       .  S
C395        H400   1.086       .  S
C395        H401   1.111       .  S
C398        H402   1.093       .  S
C398        H403   1.111       .  S
C398        H404   1.111       .  S
C405        C406   1.416       .  A
C405        C410   1.411       .  A
C405        H412   1.081       .  S
C406        C407   1.442       .  A
C407        C414   1.512       .  S
C407        C408   1.420       .  A
C408        C409   1.415       .  A
C408        H413   1.079       .  S
C409        C410   1.440       .  A
C410        C411   1.513       .  S
C411        H415   1.111       .  S
C411        H416   1.111       .  S
C411        H417   1.098       .  S
C414        H418   1.101       .  S
C414        H419   1.112       .  S
C414        H420   1.108       .  S
C421        C422   1.410       .  A
C421        C426   1.408       .  A
C421        H428   1.072       .  S
C422        C423   1.441       .  A
C423        C430   1.510       .  S
C423        C424   1.423       .  A
C424        C425   1.416       .  A
C424        H429   1.077       .  S
C425        C426   1.441       .  A
C426        C427   1.511       .  S
C427        H431   1.111       .  S
C427        H432   1.103       .  S
C427        H433   1.097       .  S
C430        H434   1.102       .  S
C430        H435   1.102       .  S
C430        H436   1.111       .  S
C437        C438   1.416       .  A
C437        C442   1.425       .  A
C437        H444   1.084       .  S
C438        C439   1.441       .  A
C439        C446   1.525       .  S
C439        C440   1.398       .  A
C440        C441   1.420       .  A
C440        H445   1.076       .  S
C441        C442   1.448       .  A
C442        C443   1.513       .  S
C443        H447   1.111       .  S
C443        H448   1.096       .  S
C443        H449   1.111       .  S
C446        H450   1.111       .  S
C446        H451   1.089       .  S
C446        H452   1.112       .  S
C453        C454   1.413       .  A
C453        C458   1.401       .  A
C453        H460   1.083       .  S
C454        C455   1.440       .  A
C455        C462   1.511       .  S
C455        C456   1.420       .  A
C456        C457   1.417       .  A
C456        H461   1.081       .  S
C457        C458   1.433       .  A
C458        C459   1.508       .  S
C459        H463   1.111       .  S
C459        H464   1.104       .  S
C459        H465   1.102       .  S
C462        H466   1.096       .  S
C462        H467   1.110       .  S
C462        H468   1.111       .  S
C469        C470   1.417       .  A
C469        C474   1.415       .  A
C469        H476   1.083       .  S
C470        C471   1.446       .  A
C471        C478   1.519       .  S
C471        C472   1.414       .  A
C472        C473   1.412       .  A
C472        H477   1.084       .  S
C473        C474   1.440       .  A
C474        C475   1.513       .  S
C475        H479   1.111       .  S
C475        H480   1.098       .  S
C475        H481   1.107       .  S
C478        H482   1.103       .  S
C478        H483   1.103       .  S
C478        H484   1.111       .  S
C485        C486   1.413       .  A
C485        C490   1.409       .  A
C485        H492   1.073       .  S
C486        C487   1.428       .  A
C487        C494   1.514       .  S
C487        C488   1.414       .  A
C488        C489   1.426       .  A
C488        H493   1.075       .  S
C489        C490   1.435       .  A
C490        C491   1.512       .  S
C491        H495   1.111       .  S
C491        H496   1.102       .  S
C491        H497   1.100       .  S
C494        H498   1.102       .  S
C494        H499   1.105       .  S
C494        H500   1.110       .  S
C501        C502   1.426       .  A
C501        C506   1.413       .  A
C501        H508   1.083       .  S
C502        C503   1.437       .  A
C503        C510   1.494       .  S
C503        C504   1.402       .  A
C504        C505   1.390       .  A
C504        H509   1.086       .  S
C505        C506   1.416       .  A
C506        C507   1.508       .  S
C507        H511   1.111       .  S
C507        H512   1.110       .  S
C507        H513   1.110       .  S
C510        H514   1.093       .  S
C510        H515   1.103       .  S
C510        H516   1.112       .  S
C517        C518   1.420       .  A
C517        C522   1.428       .  A
C517        H524   1.083       .  S
C518        C519   1.441       .  A
C519        C526   1.513       .  S
C519        C520   1.429       .  A
C520        C521   1.427       .  A
C520        H525   1.079       .  S
C521        C522   1.439       .  A
C522        C523   1.510       .  S
C523        H527   1.111       .  S
C523        H528   1.102       .  S
C523        H529   1.106       .  S
C526        H530   1.110       .  S
C526        H531   1.092       .  S
C526        H532   1.111       .  S
C533        C534   1.416       .  A
C533        C538   1.414       .  A
C533        H540   1.074       .  S
C534        C535   1.437       .  A
C535        C542   1.509       .  S
C535        C536   1.419       .  A
C536        C537   1.418       .  A
C536        H541   1.078       .  S
C537        C538   1.432       .  A
C538        C539   1.505       .  S
C539        H543   1.111       .  S
C539        H544   1.098       .  S
C539        H545   1.105       .  S
C542        H546   1.107       .  S
C542        H547   1.102       .  S
C542        H548   1.111       .  S
C549        C550   1.420       .  A
C549        C554   1.415       .  A
C549        H556   1.078       .  S
C550        C551   1.424       .  A
C551        C558   1.515       .  S
C551        C552   1.415       .  A
C552        C553   1.425       .  A
C552        H557   1.081       .  S
C553        C554   1.431       .  A
C554        C555   1.507       .  S
C555        H559   1.111       .  S
C555        H560   1.110       .  S
C555        H561   1.100       .  S
C558        H562   1.111       .  S
C558        H563   1.100       .  S
C558        H564   1.109       .  S
C565        C566   1.427       .  A
C565        C570   1.411       .  A
C565        H572   1.079       .  S
C566        C567   1.423       .  A
C567        C574   1.512       .  S
C567        C568   1.400       .  A
C568        C569   1.429       .  A
C568        H573   1.080       .  S
C569        C570   1.427       .  A
C570        C571   1.507       .  S
C571        H575   1.112       .  S
C571        H576   1.104       .  S
C571        H577   1.109       .  S
C574        H578   1.103       .  S
C574        H579   1.111       .  S
C574        H580   1.109       .  S
C581        C582   1.416       .  A
C581        C586   1.417       .  A
C581        H588   1.078       .  S
C582        C583   1.424       .  A
C583        C590   1.518       .  S
C583        C584   1.400       .  A
C584        C585   1.423       .  A
C584        H589   1.070       .  S
C585        C586   1.437       .  A
C586        C587   1.510       .  S
C587        H591   1.111       .  S
C587        H592   1.100       .  S
C587        H593   1.104       .  S
C590        H594   1.111       .  S
C590        H595   1.106       .  S
C590        H596   1.106       .  S
C597        C598   1.394       .  A
C597        C602   1.404       .  A
C597        H604   1.085       .  S
C598        C599   1.413   1_554  A
C599        C606   1.507       .  S
C599        C600   1.412   1_556  A
C600        C601   1.421       .  A
C600        H605   1.079   1_554  S
C601        C602   1.448       .  A
C602        C603   1.516       .  S
C603        H607   1.111       .  S
C603        H608   1.111       .  S
C603        H609   1.103       .  S
C606        H610   1.109       .  S
C606        H611   1.110       .  S
C606        H612   1.111       .  S
C613        C614   1.423       .  A
C613        C618   1.404       .  A
C613        H620   1.073       .  S
C614        C615   1.436   1_556  A
C615        C622   1.513       .  S
C615        C616   1.405       .  A
C616        C617   1.400   1_554  A
C616        H621   1.085       .  S
C617        C618   1.405       .  A
C618        C619   1.508       .  S
C619        H623   1.107       .  S
C619        H624   1.110       .  S
C619        H625   1.107       .  S
C622        H626   1.106       .  S
C622        H627   1.107       .  S
C622        H628   1.111       .  S
C629        C630   1.398       .  A
C629        C634   1.399       .  A
C629        H636   1.085       .  S
C630        C631   1.412   1_545  A
C631        C638   1.507       .  S
C631        C632   1.398       .  A
C632        C633   1.399   1_565  A
C632        H637   1.083       .  S
C633        C634   1.407       .  A
C634        C635   1.501       .  S
C635        H639   1.109       .  S
C635        H640   1.110       .  S
C635        H641   1.104       .  S
C638        H642   1.109       .  S
C638        H643   1.108       .  S
C638        H644   1.109       .  S
C645        C646   1.417       .  A
C645        C650   1.407       .  A
C645        H652   1.079       .  S
C646        C647   1.441       .  A
C647        C654   1.518       .  S
C647        C648   1.405       .  A
C648        C649   1.397       .  A
C648        H653   1.084       .  S
C649        C650   1.413       .  A
C650        C651   1.507       .  S
C651        H655   1.111       .  S
C651        H656   1.110       .  S
C651        H657   1.109       .  S
C654        H658   1.102       .  S
C654        H659   1.107       .  S
C654        H660   1.111       .  S
C661        C662   1.404   1_565  A
C661        C666   1.403   1_565  A
C661        H668   1.084       .  S
C662        C663   1.410       .  A
C663        C670   1.504       .  S
C663        C664   1.406       .  A
C664        C665   1.403       .  A
C664        H669   1.084       .  S
C665        C666   1.408       .  A
C666        C667   1.503   1_545  S
C667        H671   1.110       .  S
C667        H672   1.111       .  S
C667        H673   1.111       .  S
C670        H674   1.110       .  S
C670        H675   1.110       .  S
C670        H676   1.111       .  S
C677        C678   1.390       .  A
C677        C682   1.406       .  A
C677        H684   1.084       .  S
C678        C679   1.409       .  A
C679        C686   1.509       .  S
C679        C680   1.405       .  A
C680        C681   1.427       .  A
C680        H685   1.078       .  S
C681        C682   1.443       .  A
C682        C683   1.501       .  S
C683        H687   1.112       .  S
C683        H688   1.098       .  S
C683        H689   1.094       .  S
C686        H690   1.110       .  S
C686        H691   1.110       .  S
C686        H692   1.111       .  S
C693        C694   1.401       .  A
C693        C698   1.402       .  A
C693        H700   1.085       .  S
C694        C695   1.411   1_545  A
C695        C702   1.506       .  S
C695        C696   1.405       .  A
C696        C697   1.402   1_565  A
C696        H701   1.084       .  S
C697        C698   1.410       .  A
C698        C699   1.508       .  S
C699        H703   1.111       .  S
C699        H704   1.110       .  S
C699        H705   1.110       .  S
C702        H706   1.110       .  S
C702        H707   1.110       .  S
C702        H708   1.111       .  S
C709        C710   1.400       .  A
C709        C714   1.401       .  A
C709        H716   1.085       .  S
C710        C711   1.410   1_545  A
C711        C718   1.506       .  S
C711        C712   1.402       .  A
C712        C713   1.402   1_565  A
C712        H717   1.084       .  S
C713        C714   1.408       .  A
C714        C715   1.505       .  S
C715        H719   1.110       .  S
C715        H720   1.110       .  S
C715        H721   1.110       .  S
C718        H722   1.109       .  S
C718        H723   1.110       .  S
C718        H724   1.106       .  S
C725        C726   1.424       .  A
C725        C730   1.399       .  A
C725        H732   1.080       .  S
C726        C727   1.441       .  A
C727        C734   1.510       .  S
C727        C728   1.413       .  A
C728        C729   1.400       .  A
C728        H733   1.085       .  S
C729        C730   1.403       .  A
C730        C731   1.509       .  S
C731        H735   1.111       .  S
C731        H736   1.110       .  S
C731        H737   1.111       .  S
C734        H738   1.104       .  S
C734        H739   1.097       .  S
C734        H740   1.111       .  S
C741        C742   1.395       .  A
C741        C746   1.403       .  A
C741        H748   1.084       .  S
C742        C743   1.402       .  A
C743        C750   1.503       .  S
C743        C744   1.415       .  A
C744        C745   1.429       .  A
C744        H749   1.079       .  S
C745        C746   1.444       .  A
C746        C747   1.515       .  S
C747        H751   1.112       .  S
C747        H752   1.102       .  S
C747        H753   1.103       .  S
C750        H754   1.110       .  S
C750        H755   1.110       .  S
C750        H756   1.111       .  S
C757        C758   1.418       .  A
C757        C762   1.399       .  A
C757        H764   1.079       .  S
C758        C759   1.430       .  A
C759        C766   1.507       .  S
C759        C760   1.418       .  A
C760        C761   1.421       .  A
C760        H765   1.075       .  S
C761        C762   1.430       .  A
C762        C763   1.514       .  S
C763        H767   1.112       .  S
C763        H768   1.100       .  S
C763        H769   1.111       .  S
C766        H770   1.097       .  S
C766        H771   1.106       .  S
C766        H772   1.110       .  S
C773        C774   1.421       .  A
C773        C778   1.403       .  A
C773        H780   1.072       .  S
C774        C775   1.447       .  A
C775        C782   1.510       .  S
C775        C776   1.412       .  A
C776        C777   1.393       .  A
C776        H781   1.085       .  S
C777        C778   1.411       .  A
C778        C779   1.511       .  S
C779        H783   1.110       .  S
C779        H784   1.108       .  S
C779        H785   1.110       .  S
C782        H786   1.107       .  S
C782        H787   1.102       .  S
C782        H788   1.111       .  S
C789        C790   1.411       .  A
C789        C794   1.412       .  A
C789        H796   1.076       .  S
C790        C791   1.440       .  A
C791        C798   1.512       .  S
C791        C792   1.415       .  A
C792        C793   1.414       .  A
C792        H797   1.076       .  S
C793        C794   1.439       .  A
C794        C795   1.513       .  S
C795        H799   1.110       .  S
C795        H800   1.106       .  S
C795        H801   1.107       .  S
C798        H802   1.105       .  S
C798        H803   1.108       .  S
C798        H804   1.111       .  S
C805        C806   1.427       .  A
C805        C810   1.409       .  A
C805        H812   1.078       .  S
C806        C807   1.440       .  A
C807        C814   1.494       .  S
C807        C808   1.416       .  A
C808        C809   1.410       .  A
C808        H813   1.078       .  S
C809        C810   1.427       .  A
C810        C811   1.513       .  S
C811        H815   1.110       .  S
C811        H816   1.111       .  S
C811        H817   1.096       .  S
C814        H818   1.100       .  S
C814        H819   1.100       .  S
C814        H820   1.111       .  S
C821        C822   1.419       .  A
C821        C826   1.405       .  A
C821        H828   1.071       .  S
C822        C823   1.438       .  A
C823        C830   1.514       .  S
C823        C824   1.416       .  A
C824        C825   1.422       .  A
C824        H829   1.078       .  S
C825        C826   1.434       .  A
C826        C827   1.520       .  S
C827        H831   1.110       .  S
C827        H832   1.104       .  S
C827        H833   1.111       .  S
C830        H834   1.110       .  S
C830        H835   1.088       .  S
C830        H836   1.108       .  S
C837        C838   1.422       .  A
C837        C842   1.394       .  A
C837        H844   1.072       .  S
C838        C839   1.444       .  A
C839        C846   1.515       .  S
C839        C840   1.408       .  A
C840        C841   1.400       .  A
C840        H845   1.085       .  S
C841        C842   1.412       .  A
C842        C843   1.515       .  S
C843        H847   1.111       .  S
C843        H848   1.111       .  S
C843        H849   1.110       .  S
C846        H850   1.104       .  S
C846        H851   1.111       .  S
C846        H852   1.111       .  S
C853        C854   1.417       .  A
C853        C858   1.410       .  A
C853        H860   1.084       .  S
C854        C855   1.432       .  A
C855        C862   1.501       .  S
C855        C856   1.405       .  A
C856        C857   1.417       .  A
C856        H861   1.073       .  S
C857        C858   1.422       .  A
C858        C859   1.481       .  S
C859        H863   1.111       .  S
C859        H864   1.102       .  S
C859        H865   1.105       .  S
C862        H866   1.103       .  S
C862        H867   1.098       .  S
C862        H868   1.111       .  S
C869        C870   1.430       .  A
C869        C874   1.410       .  A
C869        H876   1.070       .  S
C870        C871   1.441       .  A
C871        C878   1.512       .  S
C871        C872   1.418       .  A
C872        C873   1.414       .  A
C872        H877   1.083       .  S
C873        C874   1.420       .  A
C874        C875   1.508       .  S
C875        H879   1.109       .  S
C875        H880   1.111       .  S
C875        H881   1.105       .  S
C878        H882   1.098       .  S
C878        H883   1.110       .  S
C878        H884   1.110       .  S
C885        C886   1.424       .  A
C885        C890   1.401       .  A
C885        H892   1.084       .  S
C886        C887   1.437   1_554  A
C887        C894   1.513       .  S
C887        C888   1.415       .  A
C888        C889   1.405       .  A
C888        H893   1.085       .  S
C889        C890   1.408   1_556  A
C890        C891   1.509       .  S
C891        H895   1.111       .  S
C891        H896   1.110       .  S
C891        H897   1.110       .  S
C894        H898   1.105       .  S
C894        H899   1.106       .  S
C894        H900   1.111       .  S
C901        C902   1.416       .  A
C901        C906   1.399       .  A
C901        H908   1.078       .  S
C902        C903   1.433       .  A
C903        C910   1.510       .  S
C903        C904   1.432       .  A
C904        C905   1.423       .  A
C904        H909   1.083       .  S
C905        C906   1.442       .  A
C906        C907   1.525       .  S
C907        H911   1.112       .  S
C907        H912   1.090       .  S
C907        H913   1.111       .  S
C910        H914   1.105       .  S
C910        H915   1.110       .  S
C910        H916   1.108       .  S
C917        C918   1.399       .  A
C917        C922   1.411       .  A
C917        H924   1.085       .  S
C918        C919   1.413       .  A
C919        C926   1.512   1_556  S
C919        C920   1.403       .  A
C920        C921   1.421       .  A
C920        H925   1.067       .  S
C921        C922   1.441       .  A
C922        C923   1.508       .  S
C923        H927   1.111       .  S
C923        H928   1.097       .  S
C923        H929   1.111       .  S
C926        H930   1.110       .  S
C926        H931   1.110       .  S
C926        H932   1.109       .  S
C933        C934   1.414       .  A
C933        C938   1.411       .  A
C933        H940   1.077       .  S
C934        C935   1.430       .  A
C935        C942   1.506       .  S
C935        C936   1.416       .  A
C936        C937   1.418       .  A
C936        H941   1.078       .  S
C937        C938   1.440       .  A
C938        C939   1.511       .  S
C939        H943   1.111       .  S
C939        H944   1.103       .  S
C939        H945   1.104       .  S
C942        H946   1.110       .  S
C942        H947   1.102       .  S
C942        H948   1.106       .  S
C949        C950   1.420       .  A
C949        C954   1.413   1_556  A
C949        H956   1.077       .  S
C950        C951   1.431       .  A
C951        C958   1.520       .  S
C951        C952   1.398       .  A
C952        C953   1.419       .  A
C952        H957   1.073       .  S
C953        C954   1.428   1_556  A
C954        C955   1.512       .  S
C955        H959   1.107       .  S
C955        H960   1.105       .  S
C955        H961   1.111       .  S
C958        H962   1.104       .  S
C958        H963   1.099       .  S
C958        H964   1.111       .  S
C965        C966   1.423       .  A
C965        C970   1.408   1_554  A
C965        H972   1.072       .  S
C966        C967   1.451       .  A
C967        C974   1.514       .  S
C967        C968   1.407   1_554  A
C968        C969   1.389       .  A
C968        H973   1.086       .  S
C969        C970   1.399       .  A
C970        C971   1.505       .  S
C971        H975   1.111   1_556  S
C971        H976   1.110   1_556  S
C971        H977   1.111       .  S
C974        H978   1.102   1_554  S
C974        H979   1.110       .  S
C974        H980   1.100       .  S
C981        C982   1.414       .  A
C981        C986   1.414       .  A
C981        H988   1.072       .  S
C982        C983   1.435       .  A
C983        C990   1.519       .  S
C983        C984   1.404       .  A
C984        C985   1.417       .  A
C984        H989   1.077       .  S
C985        C986   1.436       .  A
C986        C987   1.510       .  S
C987        H991   1.110       .  S
C987        H992   1.095       .  S
C987        H993   1.111       .  S
C990        H994   1.093       .  S
C990        H995   1.110       .  S
C990        H996   1.111       .  S
C997        C998   1.423   1_556  A
C997       C1002   1.401       .  A
C997       H1004   1.073       .  S
C998        C999   1.439       .  A
C999       C1006   1.512       .  S
C999       C1000   1.419       .  A
C1000      C1001   1.426   1_554  A
C1000      H1005   1.084       .  S
C1001      C1002   1.427       .  A
C1002      C1003   1.515       .  S
C1003      H1007   1.112       .  S
C1003      H1008   1.110       .  S
C1003      H1009   1.095       .  S
C1006      H1010   1.110       .  S
C1006      H1011   1.090       .  S
C1006      H1012   1.111       .  S
C1013      C1014   1.419       .  A
C1013      C1018   1.410       .  A
C1013      H1020   1.084       .  S
C1014      C1015   1.437       .  A
C1015      C1022   1.511       .  S
C1015      C1016   1.411       .  A
C1016      C1017   1.419       .  A
C1016      H1021   1.060       .  S
C1017      C1018   1.445       .  A
C1018      C1019   1.522       .  S
C1019      H1023   1.112       .  S
C1019      H1024   1.111       .  S
C1019      H1025   1.088       .  S
C1022      H1026   1.096       .  S
C1022      H1027   1.095       .  S
C1022      H1028   1.111       .  S
C1029      C1030   1.421       .  A
C1029      C1034   1.401   1_556  A
C1029      H1036   1.079   1_556  S
C1030      C1031   1.442       .  A
C1031      C1038   1.510       .  S
C1031      C1032   1.417       .  A
C1032      C1033   1.416   1_556  A
C1032      H1037   1.081       .  S
C1033      C1034   1.429       .  A
C1034      C1035   1.506       .  S
C1035      H1039   1.110       .  S
C1035      H1040   1.085       .  S
C1035      H1041   1.110       .  S
C1038      H1042   1.107       .  S
C1038      H1043   1.105       .  S
C1038      H1044   1.112       .  S
C1045      C1046   1.418       .  A
C1045      C1050   1.408       .  A
C1045      H1052   1.076       .  S
C1046      C1047   1.438       .  A
C1047      C1054   1.506       .  S
C1047      C1048   1.433       .  A
C1048      C1049   1.428       .  A
C1048      H1053   1.077       .  S
C1049      C1050   1.428       .  A
C1050      C1051   1.501       .  S
C1051      H1055   1.103       .  S
C1051      H1056   1.094       .  S
C1051      H1057   1.104       .  S
C1054      H1058   1.111       .  S
C1054      H1059   1.097       .  S
C1054      H1060   1.110       .  S
C1061      C1062   1.423   1_556  A
C1061      C1066   1.423       .  A
C1061      H1068   1.080       .  S
C1062      C1063   1.429       .  A
C1063      C1070   1.502       .  S
C1063      C1064   1.402   1_554  A
C1064      C1065   1.419       .  A
C1064      H1069   1.075       .  S
C1065      C1066   1.436       .  A
C1066      C1067   1.514       .  S
C1067      H1071   1.111       .  S
C1067      H1072   1.106       .  S
C1067      H1073   1.108       .  S
C1070      H1074   1.096       .  S
C1070      H1075   1.106       .  S
C1070      H1076   1.111       .  S
C1077      C1078   1.429       .  A
C1077      C1082   1.407       .  A
C1077      H1084   1.084       .  S
C1078      C1079   1.444       .  A
C1079      C1086   1.516       .  S
C1079      C1080   1.398       .  A
C1080      C1081   1.396       .  A
C1080      H1085   1.084   1_556  S
C1081      C1082   1.401       .  A
C1082      C1083   1.505       .  S
C1083      H1087   1.111       .  S
C1083      H1088   1.110       .  S
C1083      H1089   1.110       .  S
C1086      H1090   1.099       .  S
C1086      H1091   1.097   1_556  S
C1086      H1092   1.111   1_556  S
C1093      C1094   1.419       .  A
C1093      C1098   1.405       .  A
C1093      H1100   1.078       .  S
C1094      C1095   1.440       .  A
C1095      C1102   1.509       .  S
C1095      C1096   1.431       .  A
C1096      C1097   1.421       .  A
C1096      H1101   1.075       .  S
C1097      C1098   1.440       .  A
C1098      C1099   1.515       .  S
C1099      H1103   1.108       .  S
C1099      H1104   1.108       .  S
C1099      H1105   1.102       .  S
C1102      H1106   1.111       .  S
C1102      H1107   1.104       .  S
C1102      H1108   1.111       .  S
C1109      C1110   1.418   1_556  A
C1109      C1114   1.404       .  A
C1109      H1116   1.076       .  S
C1110      C1111   1.419       .  A
C1111      C1118   1.486       .  S
C1111      C1112   1.410   1_554  A
C1112      C1113   1.419       .  A
C1112      H1117   1.070   1_556  S
C1113      C1114   1.433       .  A
C1114      C1115   1.500       .  S
C1115      H1119   1.111       .  S
C1115      H1120   1.106       .  S
C1115      H1121   1.093       .  S
C1118      H1122   1.098       .  S
C1118      H1123   1.106       .  S
C1118      H1124   1.109       .  S
C1125      C1126   1.411   1_554  A
C1125      C1130   1.415       .  A
C1125      H1132   1.079       .  S
C1126      C1127   1.442       .  A
C1127      C1134   1.504       .  S
C1127      C1128   1.405       .  A
C1128      C1129   1.398       .  A
C1128      H1133   1.076       .  S
C1129      C1130   1.440   1_556  A
C1130      C1131   1.509       .  S
C1131      H1135   1.111       .  S
C1131      H1136   1.108       .  S
C1131      H1137   1.097       .  S
C1134      H1138   1.102       .  S
C1134      H1139   1.093       .  S
C1134      H1140   1.111       .  S
C1141      C1142   1.395       .  A
C1141      C1146   1.398       .  A
C1141      H1148   1.086       .  S
C1142      C1143   1.406   1_556  A
C1143      C1150   1.506       .  S
C1143      C1144   1.409       .  A
C1144      C1145   1.428       .  A
C1144      H1149   1.082       .  S
C1145      C1146   1.442   1_554  A
C1146      C1147   1.505       .  S
C1147      H1151   1.112       .  S
C1147      H1152   1.111       .  S
C1147      H1153   1.083       .  S
C1150      H1154   1.109       .  S
C1150      H1155   1.111       .  S
C1150      H1156   1.111       .  S
C1157      C1158   1.387       .  A
C1157      C1162   1.397       .  A
C1157      H1164   1.086       .  S
C1158      C1159   1.400   1_554  A
C1159      C1166   1.508       .  S
C1159      C1160   1.403       .  A
C1160      C1161   1.424   1_556  A
C1160      H1165   1.073       .  S
C1161      C1162   1.446       .  A
C1162      C1163   1.513       .  S
C1163      H1167   1.106       .  S
C1163      H1168   1.095       .  S
C1163      H1169   1.109       .  S
C1166      H1170   1.110       .  S
C1166      H1171   1.110       .  S
C1166      H1172   1.111       .  S
C1173      C1174   1.397       .  A
C1173      C1178   1.411       .  A
C1173      H1180   1.086       .  S
C1174      C1175   1.406       .  A
C1175      C1182   1.507       .  S
C1175      C1176   1.411       .  A
C1176      C1177   1.429       .  A
C1176      H1181   1.083       .  S
C1177      C1178   1.446       .  A
C1178      C1179   1.511       .  S
C1179      H1183   1.111       .  S
C1179      H1184   1.096       .  S
C1179      H1185   1.109   1_556  S
C1182      H1186   1.110       .  S
C1182      H1187   1.111       .  S
C1182      H1188   1.111       .  S
C1189      C1190   1.390       .  A
C1189      C1194   1.402       .  A
C1189      H1196   1.085       .  S
C1190      C1191   1.415       .  A
C1191      C1198   1.507   1_556  S
C1191      C1192   1.416       .  A
C1192      C1193   1.422       .  A
C1192      H1197   1.079       .  S
C1193      C1194   1.444       .  A
C1194      C1195   1.507       .  S
C1195      H1199   1.111       .  S
C1195      H1200   1.096       .  S
C1195      H1201   1.092       .  S
C1198      H1202   1.110   1_554  S
C1198      H1203   1.109       .  S
C1198      H1204   1.111       .  S
C1205      C1206   1.396       .  A
C1205      C1210   1.399       .  A
C1205      H1212   1.085       .  S
C1206      C1207   1.409   1_455  A
C1207      C1214   1.504       .  S
C1207      C1208   1.406       .  A
C1208      C1209   1.400   1_655  A
C1208      H1213   1.080       .  S
C1209      C1210   1.406       .  A
C1210      C1211   1.496       .  S
C1211      H1215   1.102       .  S
C1211      H1216   1.110       .  S
C1211      H1217   1.102       .  S
C1214      H1218   1.111       .  S
C1214      H1219   1.110       .  S
C1214      H1220   1.107       .  S
C1221      C1222   1.409       .  A
C1221      C1226   1.419       .  A
C1221      H1228   1.084       .  S
C1222      C1223   1.410       .  A
C1223      C1230   1.507       .  S
C1223      C1224   1.411       .  A
C1224      C1225   1.424       .  A
C1224      H1229   1.073       .  S
C1225      C1226   1.436       .  A
C1226      C1227   1.509       .  S
C1227      H1231   1.111       .  S
C1227      H1232   1.105       .  S
C1227      H1233   1.108       .  S
C1230      H1234   1.110       .  S
C1230      H1235   1.110       .  S
C1230      H1236   1.110       .  S
C1237      C1238   1.401       .  A
C1237      C1242   1.418       .  A
C1237      H1244   1.085       .  S
C1238      C1239   1.408       .  A
C1239      C1246   1.507       .  S
C1239      C1240   1.409       .  A
C1240      C1241   1.422       .  A
C1240      H1245   1.081       .  S
C1241      C1242   1.444       .  A
C1242      C1243   1.513       .  S
C1243      H1247   1.111       .  S
C1243      H1248   1.103       .  S
C1243      H1249   1.106       .  S
C1246      H1250   1.106       .  S
C1246      H1251   1.110       .  S
C1246      H1252   1.111       .  S
C1253      C1254   1.402       .  A
C1253      C1258   1.404       .  A
C1253      H1260   1.084       .  S
C1254      C1255   1.412   1_455  A
C1255      C1262   1.507       .  S
C1255      C1256   1.402       .  A
C1256      C1257   1.401   1_655  A
C1256      H1261   1.085       .  S
C1257      C1258   1.410       .  A
C1258      C1259   1.507       .  S
C1259      H1263   1.111       .  S
C1259      H1264   1.110       .  S
C1259      H1265   1.110       .  S
C1262      H1266   1.110       .  S
C1262      H1267   1.110       .  S
C1262      H1268   1.111       .  S
C1269      C1270   1.429       .  A
C1269      C1274   1.409       .  A
C1269      H1276   1.078       .  S
C1270      C1271   1.439       .  A
C1271      C1278   1.504       .  S
C1271      C1272   1.408       .  A
C1272      C1273   1.401       .  A
C1272      H1277   1.085       .  S
C1273      C1274   1.409       .  A
C1274      C1275   1.509       .  S
C1275      H1279   1.110       .  S
C1275      H1280   1.111       .  S
C1275      H1281   1.110       .  S
C1278      H1282   1.109       .  S
C1278      H1283   1.088       .  S
C1278      H1284   1.111       .  S
C1285      C1286   1.387       .  A
C1285      C1290   1.396       .  A
C1285      H1292   1.085       .  S
C1286      C1287   1.410       .  A
C1287      C1294   1.504       .  S
C1287      C1288   1.419       .  A
C1288      C1289   1.422       .  A
C1288      H1293   1.081       .  S
C1289      C1290   1.441       .  A
C1290      C1291   1.506       .  S
C1291      H1295   1.106       .  S
C1291      H1296   1.108       .  S
C1291      H1297   1.094       .  S
C1294      H1298   1.110       .  S
C1294      H1299   1.110       .  S
C1294      H1300   1.111       .  S
C1301      C1302   1.402   1_655  A
C1301      C1306   1.404       .  A
C1301      H1308   1.084       .  S
C1302      C1303   1.410       .  A
C1303      C1310   1.506       .  S
C1303      C1304   1.403       .  A
C1304      C1305   1.401   1_455  A
C1304      H1309   1.084       .  S
C1305      C1306   1.410       .  A
C1306      C1307   1.506       .  S
C1307      H1311   1.111       .  S
C1307      H1312   1.110       .  S
C1307      H1313   1.110       .  S
C1310      H1314   1.110       .  S
C1310      H1315   1.110       .  S
C1310      H1316   1.111       .  S
C1317      C1318   1.402       .  A
C1317      C1322   1.400       .  A
C1317      H1324   1.082       .  S
C1318      C1319   1.413   1_455  A
C1319      C1326   1.507       .  S
C1319      C1320   1.393       .  A
C1320      C1321   1.397   1_655  A
C1320      H1325   1.084       .  S
C1321      C1322   1.408       .  A
C1322      C1323   1.507       .  S
C1323      H1327   1.106       .  S
C1323      H1328   1.110       .  S
C1323      H1329   1.108       .  S
C1326      H1330   1.101       .  S
C1326      H1331   1.111       .  S
C1326      H1332   1.111       .  S
