geometry optimzed in LAMMPS
_audit_creation_date              2020-11-30 
_audit_creation_method            'lammps2cif' 
_symmetry_space_group_name_H-M    'P1' 
_symmetry_Int_Tables_number       1 
_symmetry_cell_setting            triclinic 
loop_ 
_symmetry_equiv_pos_as_xyz 
  x,y,z 
_cell_length_a                    42.949093640047586 
_cell_length_b                    36.151443941732396 
_cell_length_c                    44.13780494403105 
_cell_angle_alpha                 90.14139766852801 
_cell_angle_beta                  101.31022482446674 
_cell_angle_gamma                 90.28739681072094 
loop_ 
_atom_site_label 
_atom_site_type_symbol 
_atom_site_fract_x 
_atom_site_fract_y 
_atom_site_fract_z 
_atom_site_charge 
Fe1        Fe  0.25311332  0.64797681  0.37874155     1.65780
Fe2        Fe  0.17941543  0.64604986  0.33658360     1.73250
Fe3        Fe  0.20757757  0.72294015  0.37654845     1.54410
O4          O  0.23278121  0.71395076  0.42159706    -0.81630
O5          O  0.17772297  0.68571395  0.30412544    -0.79940
O6          O  0.24908008  0.65503776  0.42388065    -0.84140
O7          O  0.27975768  0.69606971  0.38144345    -0.78990
O8          O  0.16762595  0.70750690  0.39179476    -0.80770
O9          O  0.21122350  0.61804497  0.31407993    -0.83510
C10         C  0.27563455  0.72926329  0.37215770     0.97250
C11         C  0.24449206  0.68551389  0.43670465     1.04690
O12         O  0.21325323  0.67249100  0.36412628    -1.12490
O13         O  0.17967895  0.60376195  0.36778963    -0.74930
O14         O  0.23200955  0.59596480  0.37795057    -0.78410
O15         O  0.24801259  0.74197529  0.36265027    -0.79100
C16         C  0.20387452  0.58346338  0.37565993     0.96160
O17         O  0.25870748  0.64176371  0.33390336    -0.77060
O18         O  0.14266461  0.67335487  0.35281495    -0.82250
C19         C  0.17269296  0.71980774  0.30715108     0.98780
C20         C  0.14231440  0.69709610  0.37415903     1.04700
O21         O  0.18067621  0.73683004  0.33293090    -0.77900
C22         C  0.23968170  0.62616885  0.31189550     1.03000
Fe23       Fe  0.26905838  0.64809797  0.12771274     1.65780
Fe24       Fe  0.34197226  0.64848076  0.17184817     1.73250
Fe25       Fe  0.31579899  0.72281260  0.12883252     1.54420
O26         O  0.29096052  0.71240918  0.08380337    -0.81630
O27         O  0.34137089  0.68953366  0.20303765    -0.79940
O28         O  0.27377131  0.65382162  0.08270648    -0.84140
O29         O  0.24217065  0.69655159  0.12441905    -0.78990
O30         O  0.35630482  0.70645589  0.11508006    -0.80770
O31         O  0.30962937  0.62002753  0.19335247    -0.83510
C32         C  0.24755933  0.73004037  0.13304276     0.97250
C33         C  0.27848831  0.68373019  0.06927948     1.04690
O34         O  0.30897625  0.67317981  0.14248514    -1.12490
O35         O  0.34316298  0.60538599  0.14182899    -0.74930
O36         O  0.29082577  0.59616764  0.12847974    -0.78410
O37         O  0.27547366  0.74262986  0.14154346    -0.79100
C38         C  0.31938713  0.58478594  0.13152524     0.96160
O39         O  0.26247043  0.64263479  0.17240000    -0.77060
O40         O  0.37971408  0.67577879  0.15657506    -0.82250
C41         C  0.34759460  0.72310643  0.19890435     0.98780
C42         C  0.38108204  0.69750903  0.13413110     1.04700
O43         O  0.34194213  0.73839485  0.17237413    -0.77900
C44         C  0.28098771  0.62756726  0.19483294     1.03000
Fe45       Fe  0.50344518  0.86308237  0.37567845     1.65780
Fe46       Fe  0.42989777  0.86093091  0.33302078     1.73250
Fe47       Fe  0.45849067  0.78657862  0.37543662     1.54420
O48         O  0.49934065  0.76762120  0.36311699    -0.81630
O49         O  0.39329285  0.83263541  0.34877451    -0.79940
O50         O  0.03103885  0.81583820  0.37711136    -0.84140
O51         O  0.50055098  0.85594856  0.42126591    -0.78990
O52         O  0.43279870  0.77068873  0.33180387    -0.80770
O53         O  0.42861833  0.90358187  0.36346804    -0.83510
C54         C  0.49560884  0.82611303  0.43477749     0.97250
C55         C  0.02685620  0.78181717  0.36976716     1.04690
O56         O  0.46397566  0.83671601  0.36165522    -1.12490
O57         O  0.46058129  0.89070175  0.31080203    -0.74930
O58         O  0.50870840  0.87032740  0.33072194    -0.78410
O59         O  0.48303723  0.79743747  0.42037840    -0.79100
C60         C  0.48908157  0.88428994  0.30848610     0.96160
O61         O  0.48070041  0.91399248  0.37599177    -0.77060
O62         O  0.43051069  0.82032622  0.30141054    -0.82250
C63         C  0.39253914  0.81037402  0.37092704     0.98780
C64         C  0.42595720  0.78629093  0.30543895     1.04700
O65         O  0.41759765  0.80110512  0.38940951    -0.77900
C66         C  0.45204877  0.92486691  0.37316644     1.03000
Fe67       Fe  0.02073466  0.86091095  0.12610752     1.65780
Fe68       Fe  0.09453066  0.86220150  0.16821440     1.73250
Fe69       Fe  0.06670225  0.78509161  0.12785375     1.54420
O70         O  0.02557657  0.76631191  0.14064984    -0.81630
O71         O  0.13103084  0.83700355  0.15077695    -0.79940
O72         O  0.49377191  0.81291854  0.12394844    -0.84140
O73         O  0.02419346  0.85336677  0.08081623    -0.78990
O74         O  0.09248465  0.77028465  0.17156262    -0.80770
O75         O  0.09373273  0.90510339  0.13788932    -0.83510
C76         C  0.02976258  0.82343982  0.06765344     0.97250
C77         C  0.99794002  0.77938324  0.13230143     1.04690
O78         O  0.06086491  0.83592415  0.14039955    -1.12490
O79         O  0.06321533  0.88913226  0.19174963    -0.74930
O80         O  0.01519853  0.86778285  0.17101422    -0.78410
O81         O  0.04262189  0.79526523  0.08245508    -0.79100
C82         C  0.03458232  0.88186565  0.19359122     0.96160
O83         O  0.04158895  0.91344393  0.12606914    -0.77060
O84         O  0.09738076  0.82172058  0.20004391    -0.82250
C85         C  0.13283950  0.81303248  0.12999983     0.98780
C86         C  0.10143861  0.78742539  0.19711858     1.04700
O87         O  0.10830517  0.79789013  0.11410938    -0.77900
C88         C  0.06991844  0.92564893  0.12919634     1.03000
Fe89       Fe  0.25413766  0.35997984  0.37619276     1.65780
Fe90       Fe  0.17915683  0.35996488  0.33675955     1.73250
Fe91       Fe  0.20892713  0.28432229  0.37709293     1.54410
O92         O  0.24849701  0.26523339  0.36219416    -0.81630
O93         O  0.14359315  0.33412223  0.35600374    -0.79940
O94         O  0.28081237  0.31205407  0.37850749    -0.84140
O95         O  0.25128853  0.35451789  0.42170855    -0.78990
O96         O  0.18094495  0.26825808  0.33450992    -0.80770
O97         O  0.18131533  0.40417694  0.36679717    -0.83510
C98         C  0.24740050  0.32444606  0.43534032     0.97250
C99         C  0.27623981  0.27862250  0.36962793     1.04690
O100        O  0.21394059  0.33458190  0.36340595    -1.12490
O101        O  0.20970468  0.38613690  0.31170385    -0.74930
O102        O  0.25823489  0.36524477  0.33105309    -0.78410
O103        O  0.23571530  0.29521044  0.42116447    -0.79100
C104        C  0.23826889  0.37934719  0.30924652     0.96160
O105        O  0.23362418  0.41206937  0.37507984    -0.77060
O106        O  0.17521702  0.31874804  0.30509663    -0.82250
C107        C  0.14384883  0.31073429  0.37765066     0.98780
C108        C  0.17184599  0.28436149  0.30860791     1.04700
O109        O  0.16957277  0.29906511  0.39355883    -0.77900
C110        C  0.20574243  0.42472355  0.37312311     1.03000
Fe111      Fe  0.26978905  0.36150509  0.12481874     1.65780
Fe112      Fe  0.34205525  0.36231716  0.17070192     1.73250
Fe113      Fe  0.31561885  0.28590811  0.12860421     1.54420
O114        O  0.27405093  0.26640686  0.13992983    -0.81630
O115        O  0.38000408  0.33662262  0.15498894    -0.79940
O116        O  0.24297179  0.31317006  0.12154145    -0.84140
O117        O  0.27601991  0.35438791  0.08047160    -0.78990
O118        O  0.34075251  0.27089848  0.17279580    -0.80770
O119        O  0.34283163  0.40643657  0.14160492    -0.83510
C120        C  0.28075684  0.32393893  0.06774516     0.97250
C121        C  0.24662793  0.27971126  0.13043042     1.04690
O122        O  0.30929659  0.33647435  0.14125226    -1.12490
O123        O  0.30875965  0.38782954  0.19264884    -0.74930
O124        O  0.26143493  0.36811242  0.16836804    -0.78410
O125        O  0.29232390  0.29553321  0.08297965    -0.79100
C126        C  0.27966002  0.38029736  0.19239485     0.96160
O127        O  0.29077473  0.41398380  0.12624849    -0.77060
O128        O  0.34330935  0.32167788  0.20207476    -0.82250
C129        C  0.38146748  0.31294734  0.13380928     0.98780
C130        C  0.34846923  0.28778797  0.19868423     1.04700
O131        O  0.35687944  0.30118745  0.11566028    -0.77900
C132        C  0.31904093  0.42669947  0.13156666     1.03000
Fe133      Fe  0.50363353  0.14617699  0.37612813     1.65780
Fe134      Fe  0.42978763  0.14492717  0.33391291     1.73250
Fe135      Fe  0.45766814  0.22136608  0.37527897     1.54410
O136        O  0.48086869  0.21059804  0.42069400    -0.81630
O137        O  0.42799049  0.18499111  0.30201923    -0.79940
O138        O  0.49989648  0.15290394  0.42153567    -0.84140
O139        O  0.03063830  0.19421962  0.37891078    -0.78990
O140        O  0.41682797  0.20581568  0.38874918    -0.80770
O141        O  0.46133650  0.11709805  0.31118143    -0.83510
C142        C  0.02666804  0.22833793  0.37233681     0.97250
C143        C  0.49327162  0.18204011  0.43516199     1.04690
O144        O  0.46373582  0.17118398  0.36181459    -1.12490
O145        O  0.42999707  0.10252339  0.36473277    -0.74930
O146        O  0.48224003  0.09417591  0.37597001    -0.78410
O147        O  0.49911364  0.24186963  0.36428462    -0.79100
C148        C  0.45396253  0.08228354  0.37414543     0.96160
O149        O  0.00915913  0.13970300  0.33104445    -0.77060
O150        O  0.39252228  0.17154612  0.34965059    -0.82250
C151        C  0.42379092  0.21919134  0.30527948     0.98780
C152        C  0.39181676  0.19531483  0.37080041     1.04700
O153        O  0.43241570  0.23638443  0.33100262    -0.77900
C154        C  0.48967711  0.12514810  0.30874447     1.03000
Fe155      Fe  0.01898733  0.14558982  0.12554508     1.65780
Fe156      Fe  0.09301085  0.14662941  0.16769578     1.73250
Fe157      Fe  0.06273025  0.22310365  0.12916753     1.54410
O158        O  0.03799674  0.21392374  0.08371637    -0.81630
O159        O  0.09449015  0.18576481  0.20080017    -0.79940
O160        O  0.02345902  0.15422589  0.08062635    -0.84140
O161        O  0.99072030  0.19265740  0.12416049    -0.78990
O162        O  0.10327165  0.21148576  0.11388505    -0.80770
O163        O  0.06219049  0.11728170  0.19037451    -0.83510
C164        C  0.99463407  0.22535838  0.13507241     0.97250
C165        C  0.02804799  0.18488460  0.06814487     1.04690
O166        O  0.05839108  0.17187194  0.14065903    -1.12490
O167        O  0.09319447  0.10454792  0.13641170    -0.74930
O168        O  0.04107347  0.09438541  0.12458215    -0.78410
O169        O  0.02208707  0.23926605  0.14356862    -0.79100
C170        C  0.06958313  0.08345393  0.12697563     0.96160
O171        O  0.01364027  0.13700378  0.17037867    -0.77060
O172        O  0.12897217  0.17509230  0.15061486    -0.82250
C173        C  0.09772722  0.22029582  0.19842534     0.98780
C174        C  0.12887447  0.19933005  0.12959999     1.04700
O175        O  0.08904282  0.23749806  0.17295599    -0.77900
C176        C  0.03351582  0.12327962  0.19266190     1.03000
C177        C  0.03261348  0.17426338  0.48359762    -0.12220
C178        C  0.50145710  0.18310540  0.46926055     0.04780
C179        C  0.47937958  0.19354547  0.48760950    -0.07510
C180        C  0.48942293  0.19568683  0.01986038    -0.08260
C181        C  0.02058824  0.18684781  0.03416105    -0.02810
C182        C  0.04263955  0.17603249  0.01584862     0.04010
N183        N  0.07499079  0.16666150  0.02930116     0.66520
H184        H  0.04945462  0.16657401  0.46936434     0.15410
H185        H  0.47242072  0.20271348  0.03411442     0.15130
N186        N  0.44646544  0.19967517  0.47425049     0.74220
O187        O  0.09097440  0.14663201  0.01458673    -0.39230
O188        O  0.08878191  0.18110398  0.05443131    -0.39170
O189        O  0.43255015  0.17964865  0.45218837    -0.39880
O190        O  0.43008098  0.22116025  0.48733048    -0.39940
C191        C  0.03292187  0.11522397  0.27893986    -0.12220
C192        C  0.50030748  0.11817160  0.27898558     0.04780
C193        C  0.47881230  0.11760945  0.25027155    -0.07510
C194        C  0.49021334  0.11643944  0.22262171    -0.08260
C195        C  0.02291937  0.11569527  0.22243161    -0.02810
C196        C  0.04443368  0.11331835  0.25123599     0.04010
N197        N  0.07801715  0.11006455  0.25306725     0.66520
H198        H  0.04976862  0.11476073  0.30069165     0.15410
H199        H  0.47316233  0.11783306  0.20104866     0.15130
N200        N  0.44540546  0.12141706  0.24847664     0.74220
O201        O  0.09685736  0.13058958  0.27139355    -0.39230
O202        O  0.08883934  0.08198747  0.24166340    -0.39170
O203        O  0.43304371  0.15303553  0.24420167    -0.39880
O204        O  0.42781950  0.09308296  0.24392267    -0.39940
C205        C  0.18802277  0.27326421  0.11741362    -0.12220
C206        C  0.21737292  0.25649390  0.12887537     0.04780
C207        C  0.21735421  0.21845296  0.13683833    -0.07510
C208        C  0.18833285  0.19953962  0.13560952    -0.08260
C209        C  0.15908458  0.21705278  0.12516005    -0.02810
C210        C  0.15935340  0.25407499  0.11458464     0.04010
N211        N  0.13076918  0.27339132  0.10163868     0.66520
H212        H  0.18699552  0.30188965  0.11010005     0.15410
H213        H  0.18871038  0.17110083  0.14338478     0.15130
N214        N  0.24622942  0.19835976  0.14607333     0.74220
O215        O  0.12520789  0.30434280  0.11270809    -0.39230
O216        O  0.11544801  0.26408986  0.07529784    -0.39170
O217        O  0.26319726  0.20418231  0.17236677    -0.39880
O218        O  0.25088749  0.16960861  0.13133683    -0.39940
C219        C  0.46859568  0.28729553  0.13723726    -0.12220
C220        C  0.46618638  0.24828618  0.13668592     0.04780
C221        C  0.43603076  0.23187955  0.13541027    -0.07510
C222        C  0.40928021  0.25430272  0.13292767    -0.08260
C223        C  0.41144347  0.29309214  0.13313492    -0.02810
C224        C  0.44159232  0.31004508  0.13561665     0.04010
N225        N  0.44518724  0.34969359  0.13524881     0.66520
H226        H  0.49153352  0.30016457  0.13793039     0.15410
H227        H  0.38647478  0.24108712  0.13243445     0.15130
N228        N  0.43216462  0.19263521  0.13821852     0.74220
O229        O  0.47164109  0.36455286  0.14638069    -0.39230
O230        O  0.42300963  0.36980112  0.12129313    -0.39170
O231        O  0.44849402  0.17566837  0.16078812    -0.39880
O232        O  0.40903551  0.17617495  0.12141405    -0.39940
C233        C  0.37616323  0.22126398  0.26433702    -0.12220
C234        C  0.40523204  0.23777854  0.27820096     0.04780
C235        C  0.41549709  0.27020659  0.26558339    -0.07510
C236        C  0.39602505  0.28585072  0.23967908    -0.08260
C237        C  0.36699105  0.26929404  0.22579732    -0.02810
C238        C  0.35669255  0.23688558  0.23842314     0.04010
N239        N  0.32595434  0.22107727  0.22665147     0.66520
H240        H  0.36812728  0.19655337  0.27445386     0.15410
H241        H  0.40405863  0.31055576  0.22954989     0.15130
N242        N  0.44628548  0.28587958  0.27725391     0.74220
O243        O  0.32156472  0.18664094  0.22833877    -0.39230
O244        O  0.30223351  0.24189126  0.21893331    -0.39170
O245        O  0.47001775  0.26494848  0.28428509    -0.39880
O246        O  0.45067212  0.32035679  0.27595277    -0.39940
C247        C  0.08439036  0.30979869  0.36994926    -0.12220
C248        C  0.11361734  0.29306884  0.38207158     0.04780
C249        C  0.11336498  0.25635173  0.39328593    -0.07510
C250        C  0.08488936  0.23647103  0.38913696    -0.08260
C251        C  0.05570400  0.25226023  0.37543265    -0.02810
C252        C  0.05551488  0.29021981  0.36721253     0.04010
N253        N  0.02660778  0.30942156  0.35571368     0.66520
H254        H  0.08397622  0.33801863  0.36164565     0.15410
H255        H  0.08585479  0.20815627  0.39725483     0.15130
N256        N  0.14181918  0.23806929  0.40817556     0.74220
O257        O  0.02078397  0.33912925  0.36857244    -0.39230
O258        O  0.51086218  0.30156760  0.32926976    -0.39170
O259        O  0.15640163  0.24956293  0.43416245    -0.39880
O260        O  0.14831193  0.20648105  0.39893061    -0.39940
C261        C  0.33450697  0.27308033  0.37555621    -0.12220
C262        C  0.30476540  0.25537540  0.36896993     0.04780
C263        C  0.30385354  0.21648211  0.36391231    -0.07510
C264        C  0.33244498  0.19683444  0.36553874    -0.08260
C265        C  0.36197678  0.21494757  0.37248935    -0.02810
C266        C  0.36269484  0.25360935  0.37757802     0.04010
N267        N  0.39185301  0.27419170  0.38324218     0.66520
H268        H  0.33624163  0.30270955  0.37938677     0.15410
H269        H  0.33154774  0.16733304  0.36098836     0.15130
N270        N  0.27447546  0.19637525  0.35708435     0.74220
O271        O  0.39719631  0.29727149  0.36343888    -0.39230
O272        O  0.40837948  0.27546695  0.41023529    -0.39170
O273        O  0.25527002  0.20220631  0.33202711    -0.39880
O274        O  0.27079630  0.16798339  0.37263060    -0.39940
C275        C  0.11058317  0.22655071  0.25534575    -0.12220
C276        C  0.11455816  0.23959912  0.22635045     0.04780
C277        C  0.13921139  0.26490981  0.22486725    -0.07510
C278        C  0.15923528  0.27657307  0.25208354    -0.08260
C279        C  0.15509985  0.26397046  0.28116114    -0.02810
C280        C  0.13068255  0.23811337  0.28272112     0.04010
N281        N  0.12549759  0.22379487  0.31162026     0.66520
H282        H  0.09218423  0.20629714  0.25664594     0.15410
H283        H  0.17778195  0.29654111  0.25050736     0.15130
N284        N  0.14514833  0.27782534  0.19591983     0.74220
O285        O  0.09763453  0.22199561  0.31676849    -0.39230
O286        O  0.14721275  0.20580662  0.32867680    -0.39170
O287        O  0.12627968  0.30041595  0.18024162    -0.40320
O288        O  0.17169166  0.27181613  0.18874260    -0.39940
C289        C  0.23359679  0.33203858  0.48624974    -0.12220
C290        C  0.25667908  0.32343349  0.46904971     0.04780
C291        C  0.28754929  0.31315778  0.48423285    -0.07510
C292        C  0.29442170  0.31181594  0.01668242    -0.08260
C293        C  0.27149941  0.32139364  0.03392282    -0.02810
C294        C  0.24053001  0.33096535  0.01856626     0.04010
N295        N  0.21565952  0.33834213  0.03530534     0.66520
H296        H  0.20984652  0.33905869  0.47434105     0.15410
H297        H  0.31815511  0.30484474  0.02863283     0.15130
N298        N  0.31215900  0.30465696  0.46735888     0.74220
O299        O  0.19389616  0.36088675  0.02473403    -0.39230
O300        O  0.21280808  0.31860103  0.05814748    -0.39170
O301        O  0.31387941  0.32170422  0.44281825    -0.39880
O302        O  0.33433023  0.28298395  0.47872054    -0.39940
C303        C  0.22732296  0.37209420  0.25275890    -0.12220
C304        C  0.24774748  0.38548722  0.27921758     0.04780
C305        C  0.27754903  0.40044722  0.27642736    -0.07510
C306        C  0.28638826  0.40073721  0.24745472    -0.08260
C307        C  0.26697264  0.38464959  0.22131471    -0.02810
C308        C  0.23687134  0.37026352  0.22426532     0.04010
N309        N  0.21687759  0.35047291  0.19966759     0.66520
H310        H  0.20468391  0.35994709  0.25476048     0.15410
H311        H  0.30941464  0.41203737  0.24583943     0.15130
N312        N  0.29913353  0.41563045  0.30246085     0.74220
O313        O  0.22570206  0.31937802  0.19148390    -0.39230
O314        O  0.18814922  0.35960532  0.19136958    -0.39170
O315        O  0.31275744  0.39451137  0.32363191    -0.39880
O316        O  0.31004793  0.44787586  0.30073009    -0.39940
C317        C  0.05832463  0.98405280  0.09916550    -0.12220
C318        C  0.07511126  0.96566684  0.12528504     0.04780
C319        C  0.09343873  0.98657788  0.14954866    -0.07510
C320        C  0.09329077  0.02518311  0.14787714    -0.08260
C321        C  0.07520329  0.04371859  0.12263634    -0.02810
C322        C  0.05854504  0.02302769  0.09720354     0.04010
N323        N  0.04206574  0.04093653  0.06951566     0.66520
H324        H  0.04462059  0.96784396  0.08049289     0.15410
H325        H  0.10572172  0.04090606  0.16756666     0.15130
N326        N  0.10937561  0.96942026  0.17756697     0.74220
O327        O  0.02217313  0.02312544  0.04991936    -0.39230
O328        O  0.04993299  0.07311301  0.06271674    -0.39170
O329        O  0.13293402  0.94879893  0.17728182    -0.39880
O330        O  0.10361156  0.98000948  0.20317715    -0.39940
C331        C  0.46917754  0.98345697  0.40101220    -0.12220
C332        C  0.44657514  0.96444497  0.37905875     0.04780
C333        C  0.42301127  0.98499667  0.35920459    -0.07510
C334        C  0.42453577  0.02374651  0.35982065    -0.08260
C335        C  0.44896879  0.04258637  0.37979293    -0.02810
C336        C  0.47053074  0.02216626  0.40156324     0.04010
N337        N  0.49435077  0.04025796  0.42393921     0.66520
H338        H  0.48705992  0.96815281  0.41672804     0.15410
H339        H  0.40766725  0.03911127  0.34310096     0.15130
N340        N  0.39931424  0.96728122  0.33627432     0.74220
O341        O  0.49089214  0.04226842  0.45163136    -0.39230
O342        O  0.02117651  0.04715705  0.41759194    -0.39170
O343        O  0.37837848  0.94719034  0.34454634    -0.39880
O344        O  0.39567980  0.97716689  0.30839089    -0.39940
C345        C  0.48154228  0.83040500  0.48615928    -0.12220
C346        C  0.50495876  0.82461641  0.46864836     0.04780
C347        C  0.03639929  0.81637429  0.48369561    -0.07510
C348        C  0.04349661  0.81437420  0.01614600    -0.08260
C349        C  0.02025626  0.82130942  0.03370406    -0.02810
C350        C  0.48871994  0.82875564  0.01855052     0.04010
N351        N  0.46361577  0.83350821  0.03553628     0.66520
H352        H  0.45739851  0.83581489  0.47442784     0.15410
H353        H  0.06761695  0.80891983  0.02788210     0.15130
N354        N  0.06132697  0.81020601  0.46668191     0.74220
O355        O  0.44014092  0.85372795  0.02492038    -0.39230
O356        O  0.46271160  0.81388967  0.05896383    -0.39170
O357        O  0.06244092  0.82853871  0.44262293    -0.39880
O358        O  0.08430838  0.78938945  0.47755724    -0.39940
C359        C  0.03249793  0.89377720  0.27921004    -0.12220
C360        C  0.49974370  0.89184075  0.27887888     0.04780
C361        C  0.47848979  0.89157686  0.24990231    -0.07510
C362        C  0.49051046  0.88965898  0.22254431    -0.08260
C363        C  0.02334641  0.88906113  0.22299662    -0.02810
C364        C  0.04443891  0.89248655  0.25186110     0.04010
N365        N  0.07811762  0.89172478  0.25429418     0.66520
H366        H  0.04923406  0.89436640  0.30104268     0.15410
H367        H  0.47386230  0.88807233  0.20069822     0.15130
N368        N  0.44472047  0.89180472  0.24762695     0.74220
O369        O  0.09451416  0.91955460  0.26502623    -0.39230
O370        O  0.09170250  0.86107986  0.25296153    -0.39170
O371        O  0.43172932  0.91958066  0.25718449    -0.39880
O372        O  0.42761181  0.86846903  0.23054197    -0.39940
C373        C  0.34397949  0.52606545  0.15080094    -0.12220
C374        C  0.32484523  0.54510138  0.12650246     0.04780
C375        C  0.30730031  0.52491911  0.10125732    -0.07510
C376        C  0.30664636  0.48594888  0.10284556    -0.08260
C377        C  0.32385963  0.46700951  0.12846662    -0.02810
C378        C  0.34334655  0.48743692  0.15236349     0.04010
N379        N  0.35966351  0.46998687  0.18008954     0.66520
H380        H  0.35716485  0.54142239  0.17033839     0.15410
H381        H  0.29240801  0.47019342  0.08419335     0.15130
N382        N  0.29063726  0.54340958  0.07397421     0.74220
O383        O  0.38786664  0.47935934  0.19156840    -0.39230
O384        O  0.34403807  0.45180977  0.19644525    -0.39170
O385        O  0.29971239  0.57487032  0.06669885    -0.39880
O386        O  0.26946743  0.52652838  0.05499248    -0.39940
C387        C  0.19563027  0.75298779  0.10521252    -0.12220
C388        C  0.22023578  0.75540358  0.13125709     0.04780
C389        C  0.21780242  0.78141757  0.15462356    -0.07510
C390        C  0.18997809  0.80237937  0.15233422    -0.08260
C391        C  0.16456844  0.79868531  0.12691392    -0.02810
C392        C  0.16826582  0.77476909  0.10237532     0.04010
N393        N  0.14448259  0.77196845  0.07458862     0.66520
H394        H  0.19788635  0.73415976  0.08667622     0.15410
H395        H  0.18766258  0.82028375  0.17147079     0.15130
N396        N  0.24205662  0.78495173  0.18189529     0.74220
O397        O  0.13249787  0.80087819  0.06123492    -0.39230
O398        O  0.13812975  0.74104163  0.06141182    -0.39170
O399        O  0.26895835  0.79780038  0.17992696    -0.39880
O400        O  0.23471338  0.78259804  0.20815568    -0.39940
C401        C  0.44085251  0.69927329  0.14170548    -0.12220
C402        C  0.41136960  0.71656601  0.13198210     0.04780
C403        C  0.41099151  0.75367223  0.12185556    -0.07510
C404        C  0.43935456  0.77253295  0.12195459    -0.08260
C405        C  0.46904782  0.75579971  0.13179804    -0.02810
C406        C  0.46965580  0.71803448  0.14092518     0.04010
N407        N  0.99882573  0.69791298  0.14856637     0.66520
H408        H  0.44147680  0.67072107  0.14921439     0.15410
H409        H  0.43778561  0.80120923  0.11475182     0.15130
N410        N  0.38199372  0.77377802  0.11320510     0.74220
O411        O  0.00372354  0.67718938  0.17197917    -0.39230
O412        O  0.01610278  0.69446970  0.12866314    -0.39170
O413        O  0.36821984  0.78584929  0.13394478    -0.39880
O414        O  0.37415494  0.78615667  0.08608488    -0.39940
C415        C  0.37872375  0.75167753  0.28116556    -0.12220
C416        C  0.40856766  0.76587793  0.27875296     0.04780
C417        C  0.41729909  0.76829728  0.24955684    -0.07510
C418        C  0.39529396  0.75714904  0.22327415    -0.08260
C419        C  0.36539268  0.74307471  0.22568077    -0.02810
C420        C  0.35676056  0.74050340  0.25490398     0.04010
N421        N  0.32566999  0.72782538  0.25813260     0.66520
H422        H  0.37178771  0.75147907  0.30350655     0.15410
H423        H  0.40218164  0.75734701  0.20091500     0.15130
N424        N  0.44849884  0.78072523  0.24638129     0.74220
O425        O  0.32121774  0.71546935  0.28369140    -0.39230
O426        O  0.30192789  0.73244305  0.23657526    -0.39170
O427        O  0.47190428  0.77768547  0.26853539    -0.39880
O428        O  0.45348349  0.79107159  0.22043026    -0.39940
C429        C  0.21071205  0.52472508  0.35192663    -0.12220
C430        C  0.19996611  0.54303406  0.37581715     0.04780
C431        C  0.18857119  0.52219931  0.39870995    -0.07510
C432        C  0.18968748  0.48303378  0.39716156    -0.08260
C433        C  0.20213702  0.46519593  0.37386580    -0.02810
C434        C  0.21208149  0.48645366  0.35084030     0.04010
N435        N  0.22438735  0.46956590  0.32636380     0.66520
H436        H  0.21918515  0.54048244  0.33423515     0.15410
H437        H  0.18170500  0.46635811  0.41454348     0.15130
N438        N  0.17710426  0.53963373  0.42387137     0.74220
O439        O  0.20925879  0.47240435  0.29891501    -0.39230
O440        O  0.25318495  0.46023637  0.33117068    -0.39170
O441        O  0.17038989  0.57359918  0.42324643    -0.39880
O442        O  0.17257323  0.52069033  0.44663316    -0.39940
C443        C  0.08528259  0.77448657  0.38201477    -0.12220
C444        C  0.05552306  0.75836379  0.37041509     0.04780
C445        C  0.05438790  0.72036541  0.36182200    -0.07510
C446        C  0.08280463  0.70013092  0.36479021    -0.08260
C447        C  0.11244043  0.71669344  0.37621630    -0.02810
C448        C  0.11332169  0.75440562  0.38515259     0.04010
N449        N  0.14262758  0.77369812  0.39588675     0.66520
H450        H  0.08713168  0.80330343  0.38898963     0.15410
H451        H  0.08175437  0.67153079  0.35721332     0.15130
N452        N  0.02501880  0.70197738  0.34928500     0.74220
O453        O  0.15054294  0.79988970  0.38005924    -0.39230
O454        O  0.15684494  0.76990783  0.42356399    -0.39170
O455        O  0.50818122  0.71325528  0.32434931    -0.39880
O456        O  0.01911393  0.67070535  0.35958476    -0.39940
C457        C  0.33413790  0.73531659  0.38210626    -0.12220
C458        C  0.30458774  0.75264770  0.37304674     0.04780
C459        C  0.30418253  0.79078132  0.36524383    -0.07510
C460        C  0.33306233  0.80933560  0.36458615    -0.08260
C461        C  0.36240120  0.79141415  0.37334885    -0.02810
C462        C  0.36262618  0.75396145  0.38253997     0.04010
N463        N  0.39147286  0.73336338  0.39059791     0.66520
H464        H  0.33548396  0.70631691  0.38836399     0.15410
H465        H  0.33265620  0.83821274  0.35798998     0.15130
N466        N  0.27521334  0.81147054  0.35914134     0.74220
O467        O  0.39763759  0.71676758  0.41618577    -0.39230
O468        O  0.40663923  0.72489538  0.36985501    -0.39170
O469        O  0.25791437  0.81259419  0.37918370    -0.39880
O470        O  0.27043573  0.83449430  0.33728430    -0.39940
C471        C  0.14371245  0.78920764  0.24371926    -0.12220
C472        C  0.11958675  0.76860702  0.22453754     0.04780
C473        C  0.11315079  0.73226260  0.23295693    -0.07510
C474        C  0.13049486  0.71780107  0.26048411    -0.08260
C475        C  0.15451645  0.73847729  0.27970636    -0.02810
C476        C  0.16099151  0.77478845  0.27126750     0.04010
N477        N  0.18549859  0.79696435  0.28954748     0.66520
H478        H  0.14913790  0.81710609  0.23732703     0.15410
H479        H  0.12518609  0.68985963  0.26686415     0.15130
N480        N  0.08866467  0.71007923  0.21466702     0.74220
O481        O  0.20577726  0.81277993  0.27675575    -0.39230
O482        O  0.18280322  0.80723351  0.31625272    -0.39170
O483        O  0.09144742  0.69969273  0.18801550    -0.39880
O484        O  0.06832368  0.69435234  0.22743216    -0.39940
C485        C  0.22956891  0.68781489  0.48782880    -0.12220
C486        C  0.25358032  0.68806494  0.47050778     0.04780
C487        C  0.28576363  0.68797495  0.48570983    -0.07510
C488        C  0.29309574  0.68657358  0.01809393    -0.08260
C489        C  0.26909411  0.68519447  0.03544960    -0.02810
C490        C  0.23681351  0.68600101  0.02022420     0.04010
N491        N  0.21116063  0.68561568  0.03692347     0.66520
H492        H  0.20497814  0.68772443  0.47593580     0.15410
H493        H  0.31771012  0.68666830  0.02991430     0.15130
N494        N  0.31112557  0.69000064  0.46876726     0.74220
O495        O  0.18560334  0.70218306  0.02609721    -0.39230
O496        O  0.21218236  0.66509245  0.06017031    -0.39170
O497        O  0.30866009  0.71050759  0.44533624    -0.39880
O498        O  0.33752302  0.67508056  0.47934731    -0.39940
C499        C  0.29208279  0.61776224  0.25182935    -0.12220
C500        C  0.26954770  0.62023387  0.22411076     0.04780
C501        C  0.23685920  0.61979851  0.22563123    -0.07510
C502        C  0.22782195  0.61955173  0.25457568    -0.08260
C503        C  0.25044295  0.61911995  0.28229187    -0.02810
C504        C  0.28300897  0.61682862  0.28072657     0.04010
N505        N  0.30719333  0.61368434  0.30813508     0.66520
H506        H  0.31714552  0.61753118  0.25116292     0.15410
H507        H  0.20281103  0.62087598  0.25536489     0.15130
N508        N  0.21249611  0.61985139  0.19820850     0.74220
O509        O  0.30411198  0.59049295  0.32870276    -0.39230
O510        O  0.33324372  0.63075772  0.31016732    -0.39170
O511        O  0.21348587  0.59693811  0.17678857    -0.39880
O512        O  0.18784941  0.63908314  0.19716696    -0.39940
Fe513      Fe  0.25311332  0.64797681  0.87874155     1.65780
Fe514      Fe  0.17941543  0.64604986  0.83658360     1.73250
Fe515      Fe  0.20757757  0.72294016  0.87654844     1.54410
O516        O  0.23278121  0.71395077  0.92159705    -0.81630
O517        O  0.17772297  0.68571395  0.80412543    -0.79940
O518        O  0.24908007  0.65503776  0.92388064    -0.84140
O519        O  0.27975768  0.69606971  0.88144345    -0.78990
O520        O  0.16762595  0.70750691  0.89179475    -0.80770
O521        O  0.21122350  0.61804497  0.81407993    -0.83510
C522        C  0.27563455  0.72926329  0.87215769     0.97250
C523        C  0.24449205  0.68551390  0.93670464     1.04690
O524        O  0.21325323  0.67249100  0.86412627    -1.12490
O525        O  0.17967895  0.60376195  0.86778963    -0.74930
O526        O  0.23200955  0.59596480  0.87795056    -0.78410
O527        O  0.24801259  0.74197529  0.86265026    -0.79100
C528        C  0.20387452  0.58346338  0.87565992     0.96160
O529        O  0.25870748  0.64176371  0.83390335    -0.77060
O530        O  0.14266461  0.67335487  0.85281494    -0.82250
C531        C  0.17269296  0.71980774  0.80715107     0.98780
C532        C  0.14231440  0.69709610  0.87415902     1.04700
O533        O  0.18067621  0.73683004  0.83293089    -0.77900
C534        C  0.23968170  0.62616885  0.81189550     1.03000
Fe535      Fe  0.26905838  0.64809797  0.62771275     1.65780
Fe536      Fe  0.34197225  0.64848077  0.67184817     1.73250
Fe537      Fe  0.31579896  0.72281261  0.62883253     1.54420
O538        O  0.29096049  0.71240920  0.58380339    -0.81630
O539        O  0.34137088  0.68953365  0.70303767    -0.79940
O540        O  0.27377130  0.65382163  0.58270649    -0.84140
O541        O  0.24217063  0.69655157  0.62441906    -0.78990
O542        O  0.35630479  0.70645592  0.61508006    -0.80770
O543        O  0.30962937  0.62002752  0.69335246    -0.83510
C544        C  0.24755931  0.73004036  0.63304277     0.97250
C545        C  0.27848830  0.68373020  0.56927950     1.04690
O546        O  0.30897624  0.67317981  0.64248515    -1.12490
O547        O  0.34316299  0.60538602  0.64182898    -0.74930
O548        O  0.29082577  0.59616765  0.62847974    -0.78410
O549        O  0.27547364  0.74262985  0.64154349    -0.79100
C550        C  0.31938714  0.58478595  0.63152524     0.96160
O551        O  0.26247043  0.64263478  0.67240000    -0.77060
O552        O  0.37971407  0.67577884  0.65657507    -0.82250
C553        C  0.34759457  0.72310642  0.69890438     0.98780
C554        C  0.38108202  0.69750908  0.63413111     1.04700
O555        O  0.34194210  0.73839485  0.67237416    -0.77900
C556        C  0.28098771  0.62756724  0.69483294     1.03000
Fe557      Fe  0.50344518  0.86308237  0.87567846     1.65780
Fe558      Fe  0.42989777  0.86093092  0.83302079     1.73250
Fe559      Fe  0.45849067  0.78657863  0.87543662     1.54420
O560        O  0.49934065  0.76762121  0.86311699    -0.81630
O561        O  0.39329285  0.83263541  0.84877452    -0.79940
O562        O  0.03103885  0.81583821  0.87711137    -0.84140
O563        O  0.50055098  0.85594856  0.92126592    -0.78990
O564        O  0.43279870  0.77068874  0.83180387    -0.80770
O565        O  0.42861833  0.90358188  0.86346805    -0.83510
C566        C  0.49560884  0.82611302  0.93477750     0.97250
C567        C  0.02685620  0.78181717  0.86976716     1.04690
O568        O  0.46397566  0.83671601  0.86165523    -1.12490
O569        O  0.46058129  0.89070176  0.81080203    -0.74930
O570        O  0.50870840  0.87032741  0.83072195    -0.78410
O571        O  0.48303723  0.79743747  0.92037840    -0.79100
C572        C  0.48908156  0.88428994  0.80848611     0.96160
O573        O  0.48070042  0.91399249  0.87599178    -0.77060
O574        O  0.43051068  0.82032623  0.80141055    -0.82250
C575        C  0.39253914  0.81037403  0.87092705     0.98780
C576        C  0.42595719  0.78629094  0.80543895     1.04700
O577        O  0.41759765  0.80110512  0.88940952    -0.77900
C578        C  0.45204878  0.92486691  0.87316645     1.03000
Fe579      Fe  0.02073466  0.86091096  0.62610752     1.65780
Fe580      Fe  0.09453066  0.86220151  0.66821441     1.73250
Fe581      Fe  0.06670225  0.78509162  0.62785373     1.54420
O582        O  0.02557657  0.76631191  0.64064982    -0.81630
O583        O  0.13103084  0.83700356  0.65077695    -0.79940
O584        O  0.49377192  0.81291854  0.62394843    -0.84140
O585        O  0.02419346  0.85336680  0.58081622    -0.78990
O586        O  0.09248466  0.77028465  0.67156260    -0.80770
O587        O  0.09373273  0.90510340  0.63788933    -0.83510
C588        C  0.02976258  0.82343985  0.56765343     0.97250
C589        C  0.99794003  0.77938323  0.63230140     1.04690
O590        O  0.06086491  0.83592416  0.64039955    -1.12490
O591        O  0.06321532  0.88913226  0.69174963    -0.74930
O592        O  0.01519853  0.86778284  0.67101422    -0.78410
O593        O  0.04262189  0.79526526  0.58245507    -0.79100
C594        C  0.03458232  0.88186564  0.69359122     0.96160
O595        O  0.04158894  0.91344394  0.62606915    -0.77060
O596        O  0.09738075  0.82172058  0.70004391    -0.82250
C597        C  0.13283950  0.81303250  0.62999983     0.98780
C598        C  0.10143861  0.78742539  0.69711857     1.04700
O599        O  0.10830516  0.79789016  0.61410936    -0.77900
C600        C  0.06991844  0.92564894  0.62919635     1.03000
Fe601      Fe  0.25413766  0.35997985  0.87619276     1.65780
Fe602      Fe  0.17915682  0.35996489  0.83675955     1.73250
Fe603      Fe  0.20892713  0.28432229  0.87709294     1.54410
O604        O  0.24849701  0.26523340  0.86219416    -0.81630
O605        O  0.14359315  0.33412224  0.85600376    -0.79940
O606        O  0.28081237  0.31205408  0.87850749    -0.84140
O607        O  0.25128853  0.35451789  0.92170855    -0.78990
O608        O  0.18094495  0.26825807  0.83450992    -0.80770
O609        O  0.18131533  0.40417695  0.86679717    -0.83510
C610        C  0.24740050  0.32444607  0.93534032     0.97250
C611        C  0.27623982  0.27862251  0.86962793     1.04690
O612        O  0.21394059  0.33458191  0.86340595    -1.12490
O613        O  0.20970467  0.38613690  0.81170385    -0.74930
O614        O  0.25823489  0.36524478  0.83105309    -0.78410
O615        O  0.23571530  0.29521045  0.92116447    -0.79100
C616        C  0.23826888  0.37934719  0.80924652     0.96160
O617        O  0.23362418  0.41206937  0.87507984    -0.77060
O618        O  0.17521701  0.31874804  0.80509663    -0.82250
C619        C  0.14384883  0.31073429  0.87765068     0.98780
C620        C  0.17184598  0.28436149  0.80860791     1.04700
O621        O  0.16957277  0.29906510  0.89355883    -0.77900
C622        C  0.20574243  0.42472356  0.87312311     1.03000
Fe623      Fe  0.26978906  0.36150510  0.62481874     1.65780
Fe624      Fe  0.34205525  0.36231717  0.67070192     1.73250
Fe625      Fe  0.31561886  0.28590812  0.62860421     1.54420
O626        O  0.27405094  0.26640687  0.63992984    -0.81630
O627        O  0.38000409  0.33662263  0.65498895    -0.79940
O628        O  0.24297180  0.31317007  0.62154145    -0.84140
O629        O  0.27601992  0.35438792  0.58047160    -0.78990
O630        O  0.34075252  0.27089849  0.67279581    -0.80770
O631        O  0.34283164  0.40643658  0.64160493    -0.83510
C632        C  0.28075685  0.32393894  0.56774516     0.97250
C633        C  0.24662794  0.27971127  0.63043042     1.04690
O634        O  0.30929660  0.33647436  0.64125227    -1.12490
O635        O  0.30875965  0.38782955  0.69264884    -0.74930
O636        O  0.26143494  0.36811243  0.66836803    -0.78410
O637        O  0.29232391  0.29553322  0.58297965    -0.79100
C638        C  0.27966002  0.38029737  0.69239485     0.96160
O639        O  0.29077474  0.41398381  0.62624849    -0.77060
O640        O  0.34330935  0.32167789  0.70207476    -0.82250
C641        C  0.38146749  0.31294735  0.63380929     0.98780
C642        C  0.34846923  0.28778798  0.69868423     1.04700
O643        O  0.35687945  0.30118746  0.61566029    -0.77900
C644        C  0.31904094  0.42669948  0.63156666     1.03000
Fe645      Fe  0.50363353  0.14617700  0.87612813     1.65780
Fe646      Fe  0.42978764  0.14492718  0.83391292     1.73250
Fe647      Fe  0.45766815  0.22136609  0.87527898     1.54410
O648        O  0.48086870  0.21059805  0.92069401    -0.81630
O649        O  0.42799049  0.18499112  0.80201924    -0.79940
O650        O  0.49989649  0.15290395  0.92153567    -0.84140
O651        O  0.03063830  0.19421964  0.87891078    -0.78990
O652        O  0.41682797  0.20581568  0.88874919    -0.80770
O653        O  0.46133651  0.11709807  0.81118143    -0.83510
C654        C  0.02666803  0.22833795  0.87233682     0.97250
C655        C  0.49327162  0.18204011  0.93516200     1.04690
O656        O  0.46373583  0.17118399  0.86181460    -1.12490
O657        O  0.42999707  0.10252340  0.86473277    -0.74930
O658        O  0.48224003  0.09417592  0.87597001    -0.78410
O659        O  0.49911364  0.24186964  0.86428463    -0.79100
C660        C  0.45396254  0.08228354  0.87414543     0.96160
O661        O  0.00915913  0.13970302  0.83104445    -0.77060
O662        O  0.39252229  0.17154612  0.84965059    -0.82250
C663        C  0.42379092  0.21919135  0.80527949     0.98780
C664        C  0.39181676  0.19531484  0.87080042     1.04700
O665        O  0.43241570  0.23638444  0.83100263    -0.77900
C666        C  0.48967711  0.12514811  0.80874447     1.03000
Fe667      Fe  0.01898733  0.14558983  0.62554508     1.65780
Fe668      Fe  0.09301085  0.14662942  0.66769578     1.73250
Fe669      Fe  0.06273025  0.22310367  0.62916753     1.54410
O670        O  0.03799675  0.21392375  0.58371637    -0.81630
O671        O  0.09449015  0.18576481  0.70080017    -0.79940
O672        O  0.02345902  0.15422591  0.58062635    -0.84140
O673        O  0.99072030  0.19265741  0.62416049    -0.78990
O674        O  0.10327166  0.21148577  0.61388505    -0.80770
O675        O  0.06219050  0.11728170  0.69037451    -0.83510
C676        C  0.99463407  0.22535840  0.63507241     0.97250
C677        C  0.02804799  0.18488462  0.56814487     1.04690
O678        O  0.05839109  0.17187195  0.64065903    -1.12490
O679        O  0.09319447  0.10454793  0.63641170    -0.74930
O680        O  0.04107347  0.09438542  0.62458214    -0.78410
O681        O  0.02208708  0.23926606  0.64356862    -0.79100
C682        C  0.06958314  0.08345394  0.62697563     0.96160
O683        O  0.01364028  0.13700379  0.67037867    -0.77060
O684        O  0.12897217  0.17509231  0.65061486    -0.82250
C685        C  0.09772723  0.22029582  0.69842534     0.98780
C686        C  0.12887448  0.19933006  0.62960000     1.04700
O687        O  0.08904283  0.23749807  0.67295600    -0.77900
C688        C  0.03351583  0.12327963  0.69266189     1.03000
C689        C  0.03261348  0.17426335  0.98359763    -0.12220
C690        C  0.50145710  0.18310539  0.96926055     0.04780
C691        C  0.47937958  0.19354548  0.98760950    -0.07510
C692        C  0.48942293  0.19568682  0.51986038    -0.08260
C693        C  0.02058825  0.18684782  0.53416105    -0.02810
C694        C  0.04263956  0.17603252  0.51584861     0.04010
N695        N  0.07499080  0.16666154  0.52930115     0.66520
H696        H  0.04945461  0.16657397  0.96936434     0.15410
H697        H  0.47242072  0.20271345  0.53411442     0.15130
N698        N  0.44646544  0.19967520  0.97425048     0.74220
O699        O  0.09097442  0.14663206  0.51458673    -0.39230
O700        O  0.08878192  0.18110403  0.55443130    -0.39170
O701        O  0.43255015  0.17964867  0.95218837    -0.39880
O702        O  0.43008100  0.22116029  0.98733047    -0.39940
C703        C  0.03292187  0.11522400  0.77893985    -0.12220
C704        C  0.50030749  0.11817161  0.77898558     0.04780
C705        C  0.47881231  0.11760946  0.75027155    -0.07510
C706        C  0.49021334  0.11643944  0.72262170    -0.08260
C707        C  0.02291938  0.11569528  0.72243161    -0.02810
C708        C  0.04443369  0.11331836  0.75123599     0.04010
N709        N  0.07801716  0.11006457  0.75306725     0.66520
H710        H  0.04976863  0.11476076  0.80069165     0.15410
H711        H  0.47316234  0.11783305  0.70104866     0.15130
N712        N  0.44540546  0.12141707  0.74847664     0.74220
O713        O  0.09685736  0.13058961  0.77139355    -0.39230
O714        O  0.08883935  0.08198749  0.74166340    -0.39170
O715        O  0.43304372  0.15303554  0.74420170    -0.39880
O716        O  0.42781951  0.09308297  0.74392263    -0.39940
C717        C  0.18802278  0.27326422  0.61741362    -0.12220
C718        C  0.21737293  0.25649391  0.62887537     0.04780
C719        C  0.21735422  0.21845297  0.63683833    -0.07510
C720        C  0.18833286  0.19953963  0.63560953    -0.08260
C721        C  0.15908459  0.21705279  0.62516005    -0.02810
C722        C  0.15935340  0.25407500  0.61458464     0.04010
N723        N  0.13076918  0.27339133  0.60163869     0.66520
H724        H  0.18699552  0.30188966  0.61010005     0.15410
H725        H  0.18871039  0.17110084  0.64338478     0.15130
N726        N  0.24622943  0.19835977  0.64607333     0.74220
O727        O  0.12520790  0.30434281  0.61270809    -0.39230
O728        O  0.11544802  0.26408987  0.57529785    -0.39170
O729        O  0.26319727  0.20418232  0.67236677    -0.39880
O730        O  0.25088750  0.16960862  0.63133683    -0.39940
C731        C  0.46859568  0.28729554  0.63723725    -0.12220
C732        C  0.46618639  0.24828619  0.63668592     0.04780
C733        C  0.43603077  0.23187956  0.63541030    -0.07510
C734        C  0.40928022  0.25430273  0.63292770    -0.08260
C735        C  0.41144348  0.29309215  0.63313493    -0.02810
C736        C  0.44159232  0.31004509  0.63561665     0.04010
N737        N  0.44518725  0.34969360  0.63524878     0.66520
H738        H  0.49153353  0.30016458  0.63793037     0.15410
H739        H  0.38647480  0.24108713  0.63243450     0.15130
N740        N  0.43216464  0.19263523  0.63821856     0.74220
O741        O  0.47164110  0.36455288  0.64638064    -0.39230
O742        O  0.42300962  0.36980112  0.62129311    -0.39170
O743        O  0.44849405  0.17566839  0.66078816    -0.39880
O744        O  0.40903552  0.17617495  0.62141411    -0.39940
C745        C  0.37616323  0.22126399  0.76433702    -0.12220
C746        C  0.40523204  0.23777855  0.77820097     0.04780
C747        C  0.41549710  0.27020660  0.76558340    -0.07510
C748        C  0.39602506  0.28585073  0.73967909    -0.08260
C749        C  0.36699105  0.26929405  0.72579733    -0.02810
C750        C  0.35669255  0.23688559  0.73842314     0.04010
N751        N  0.32595434  0.22107728  0.72665148     0.66520
H752        H  0.36812728  0.19655339  0.77445387     0.15410
H753        H  0.40405864  0.31055577  0.72954990     0.15130
N754        N  0.44628548  0.28587959  0.77725391     0.74220
O755        O  0.32156472  0.18664095  0.72833878    -0.39230
O756        O  0.30223351  0.24189128  0.71893331    -0.39170
O757        O  0.47001775  0.26494848  0.78428509    -0.39880
O758        O  0.45067212  0.32035680  0.77595277    -0.39940
C759        C  0.08439036  0.30979871  0.86994927    -0.12220
C760        C  0.11361734  0.29306886  0.88207161     0.04780
C761        C  0.11336497  0.25635176  0.89328598    -0.07510
C762        C  0.08488936  0.23647106  0.88913701    -0.08260
C763        C  0.05570400  0.25226025  0.87543267    -0.02810
C764        C  0.05551488  0.29021983  0.86721253     0.04010
N765        N  0.02660778  0.30942157  0.85571366     0.66520
H766        H  0.08397622  0.33801864  0.86164564     0.15410
H767        H  0.08585478  0.20815631  0.89725489     0.15130
N768        N  0.14181917  0.23806934  0.90817564     0.74220
O769        O  0.02078397  0.33912927  0.86857241    -0.39230
O770        O  0.51086219  0.30156761  0.82926975    -0.39170
O771        O  0.15640161  0.24956301  0.93416252    -0.39880
O772        O  0.14831192  0.20648108  0.89893073    -0.39940
C773        C  0.33450698  0.27308033  0.87555624    -0.12220
C774        C  0.30476541  0.25537541  0.86896993     0.04780
C775        C  0.30385354  0.21648212  0.86391230    -0.07510
C776        C  0.33244498  0.19683445  0.86553872    -0.08260
C777        C  0.36197678  0.21494757  0.87248936    -0.02810
C778        C  0.36269484  0.25360935  0.87757805     0.04010
N779        N  0.39185302  0.27419170  0.88324224     0.66520
H780        H  0.33624164  0.30270955  0.87938682     0.15410
H781        H  0.33154774  0.16733305  0.86098832     0.15130
N782        N  0.27447546  0.19637527  0.85708430     0.74220
O783        O  0.39719633  0.29727150  0.86343895    -0.39230
O784        O  0.40837947  0.27546692  0.91023536    -0.39170
O785        O  0.25527003  0.20220636  0.83202706    -0.39880
O786        O  0.27079629  0.16798339  0.87263053    -0.39940
C787        C  0.11058316  0.22655073  0.75534575    -0.12220
C788        C  0.11455816  0.23959913  0.72635046     0.04780
C789        C  0.13921141  0.26490980  0.72486726    -0.07510
C790        C  0.15923530  0.27657305  0.75208355    -0.08260
C791        C  0.15509984  0.26397046  0.78116115    -0.02810
C792        C  0.13068254  0.23811338  0.78272112     0.04010
N793        N  0.12549756  0.22379490  0.81162027     0.66520
H794        H  0.09218421  0.20629716  0.75664593     0.15410
H795        H  0.17778197  0.29654108  0.75050738     0.15130
N796        N  0.14514836  0.27782531  0.69591984     0.74220
O797        O  0.09763449  0.22199565  0.81676848    -0.39230
O798        O  0.14721271  0.20580666  0.82867682    -0.39170
O799        O  0.12627972  0.30041593  0.68024162    -0.40320
O800        O  0.17169170  0.27181610  0.68874262    -0.39940
C801        C  0.23359679  0.33203856  0.98624974    -0.12220
C802        C  0.25667908  0.32343349  0.96904971     0.04780
C803        C  0.28754929  0.31315781  0.98423285    -0.07510
C804        C  0.29442170  0.31181592  0.51668242    -0.08260
C805        C  0.27149941  0.32139365  0.53392282    -0.02810
C806        C  0.24053002  0.33096538  0.51856626     0.04010
N807        N  0.21565954  0.33834219  0.53530534     0.66520
H808        H  0.20984651  0.33905864  0.97434105     0.15410
H809        H  0.31815511  0.30484470  0.52863283     0.15130
N810        N  0.31215901  0.30465701  0.96735888     0.74220
O811        O  0.19389620  0.36088684  0.52473403    -0.39230
O812        O  0.21280809  0.31860110  0.55814748    -0.39170
O813        O  0.31387941  0.32170428  0.94281825    -0.39880
O814        O  0.33433025  0.28298402  0.97872054    -0.39940
C815        C  0.22732296  0.37209419  0.75275889    -0.12220
C816        C  0.24774747  0.38548722  0.77921757     0.04780
C817        C  0.27754901  0.40044723  0.77642735    -0.07510
C818        C  0.28638825  0.40073723  0.74745471    -0.08260
C819        C  0.26697264  0.38464960  0.72131471    -0.02810
C820        C  0.23687134  0.37026351  0.72426532     0.04010
N821        N  0.21687760  0.35047289  0.69966758     0.66520
H822        H  0.20468391  0.35994708  0.75476048     0.15410
H823        H  0.30941463  0.41203739  0.74583943     0.15130
N824        N  0.29913351  0.41563047  0.80246085     0.74220
O825        O  0.22570208  0.31937801  0.69148390    -0.39230
O826        O  0.18814922  0.35960529  0.69136957    -0.39170
O827        O  0.31275743  0.39451139  0.82363191    -0.39880
O828        O  0.31004790  0.44787588  0.80073009    -0.39940
C829        C  0.05832462  0.98405281  0.59916551    -0.12220
C830        C  0.07511126  0.96566686  0.62528504     0.04780
C831        C  0.09343873  0.98657790  0.64954867    -0.07510
C832        C  0.09329077  0.02518312  0.64787714    -0.08260
C833        C  0.07520329  0.04371860  0.62263634    -0.02810
C834        C  0.05854504  0.02302770  0.59720355     0.04010
N835        N  0.04206573  0.04093654  0.56951567     0.66520
H836        H  0.04462058  0.96784397  0.58049290     0.15410
H837        H  0.10572174  0.04090607  0.66756666     0.15130
N838        N  0.10937562  0.96942027  0.67756698     0.74220
O839        O  0.02217309  0.02312546  0.54991938    -0.39230
O840        O  0.04993300  0.07311300  0.56271673    -0.39170
O841        O  0.13293402  0.94879894  0.67728182    -0.39880
O842        O  0.10361157  0.98000950  0.70317716    -0.39940
C843        C  0.46917755  0.98345698  0.90101221    -0.12220
C844        C  0.44657515  0.96444498  0.87905877     0.04780
C845        C  0.42301127  0.98499668  0.85920461    -0.07510
C846        C  0.42453577  0.02374652  0.85982067    -0.08260
C847        C  0.44896879  0.04258638  0.87979293    -0.02810
C848        C  0.47053075  0.02216627  0.90156324     0.04010
N849        N  0.49435079  0.04025797  0.92393920     0.66520
H850        H  0.48705993  0.96815282  0.91672804     0.15410
H851        H  0.40766725  0.03911127  0.84310098     0.15130
N852        N  0.39931423  0.96728122  0.83627435     0.74220
O853        O  0.49089216  0.04226845  0.95163136    -0.39230
O854        O  0.02117653  0.04715706  0.91759192    -0.39170
O855        O  0.37837847  0.94719035  0.84454638    -0.39880
O856        O  0.39567978  0.97716689  0.80839092    -0.39940
C857        C  0.48154227  0.83040497  0.98615929    -0.12220
C858        C  0.50495876  0.82461640  0.96864836     0.04780
C859        C  0.03639929  0.81637428  0.98369562    -0.07510
C860        C  0.04349661  0.81437422  0.51614599    -0.08260
C861        C  0.02025627  0.82130945  0.53370406    -0.02810
C862        C  0.48871995  0.82875568  0.51855051     0.04010
N863        N  0.46361577  0.83350826  0.53553627     0.66520
H864        H  0.45739851  0.83581486  0.97442785     0.15410
H865        H  0.06761695  0.80891984  0.52788209     0.15130
N866        N  0.06132697  0.81020600  0.96668192     0.74220
O867        O  0.44014093  0.85372801  0.52492037    -0.39230
O868        O  0.46271160  0.81388972  0.55896382    -0.39170
O869        O  0.06244092  0.82853871  0.94262294    -0.39880
O870        O  0.08430838  0.78938944  0.97755724    -0.39940
C871        C  0.03249793  0.89377720  0.77921004    -0.12220
C872        C  0.49974370  0.89184076  0.77887889     0.04780
C873        C  0.47848978  0.89157686  0.74990232    -0.07510
C874        C  0.49051045  0.88965897  0.72254432    -0.08260
C875        C  0.02334641  0.88906112  0.72299662    -0.02810
C876        C  0.04443891  0.89248654  0.75186110     0.04010
N877        N  0.07811762  0.89172477  0.75429418     0.66520
H878        H  0.04923406  0.89436640  0.80104268     0.15410
H879        H  0.47386230  0.88807233  0.70069822     0.15130
N880        N  0.44472047  0.89180474  0.74762695     0.74220
O881        O  0.09451416  0.91955459  0.76502624    -0.39230
O882        O  0.09170249  0.86107985  0.75296152    -0.39170
O883        O  0.43172932  0.91958068  0.75718450    -0.39880
O884        O  0.42761180  0.86846905  0.73054198    -0.39940
C885        C  0.34397949  0.52606546  0.65080095    -0.12220
C886        C  0.32484524  0.54510139  0.62650246     0.04780
C887        C  0.30730033  0.52491912  0.60125732    -0.07510
C888        C  0.30664637  0.48594889  0.60284556    -0.08260
C889        C  0.32385964  0.46700952  0.62846663    -0.02810
C890        C  0.34334655  0.48743694  0.65236349     0.04010
N891        N  0.35966351  0.46998688  0.68008956     0.66520
H892        H  0.35716485  0.54142241  0.67033840     0.15410
H893        H  0.29240803  0.47019343  0.58419335     0.15130
N894        N  0.29063728  0.54340959  0.57397420     0.74220
O895        O  0.38786664  0.47935936  0.69156842    -0.39230
O896        O  0.34403806  0.45180978  0.69644525    -0.39170
O897        O  0.29971241  0.57487033  0.56669885    -0.39880
O898        O  0.26946746  0.52652839  0.55499247    -0.39940
C899        C  0.19563026  0.75298778  0.60521252    -0.12220
C900        C  0.22023576  0.75540357  0.63125710     0.04780
C901        C  0.21780241  0.78141757  0.65462356    -0.07510
C902        C  0.18997808  0.80237939  0.65233421    -0.08260
C903        C  0.16456843  0.79868532  0.62691392    -0.02810
C904        C  0.16826581  0.77476910  0.60237532     0.04010
N905        N  0.14448259  0.77196847  0.57458862     0.66520
H906        H  0.19788633  0.73415974  0.58667623     0.15410
H907        H  0.18766258  0.82028377  0.67147078     0.15130
N908        N  0.24205661  0.78495174  0.68189529     0.74220
O909        O  0.13249787  0.80087821  0.56123492    -0.39230
O910        O  0.13812975  0.74104165  0.56141180    -0.39170
O911        O  0.26895833  0.79780042  0.67992695    -0.39880
O912        O  0.23471338  0.78259805  0.70815568    -0.39940
C913        C  0.44085249  0.69927337  0.64170559    -0.12220
C914        C  0.41136958  0.71656605  0.63198208     0.04780
C915        C  0.41099151  0.75367220  0.62185534    -0.07510
C916        C  0.43935457  0.77253289  0.62195435    -0.08260
C917        C  0.46904782  0.75579969  0.63179797    -0.02810
C918        C  0.46965578  0.71803453  0.64092528     0.04010
N919        N  0.99882572  0.69791305  0.64856660     0.66520
H920        H  0.44147676  0.67072120  0.64921463     0.15410
H921        H  0.43778564  0.80120911  0.61475144     0.15130
N922        N  0.38199372  0.77377798  0.61320468     0.74220
O923        O  0.00372348  0.67718957  0.67197948    -0.39230
O924        O  0.01610282  0.69446964  0.62866344    -0.39170
O925        O  0.36821926  0.78584849  0.63394421    -0.39880
O926        O  0.37415552  0.78615744  0.58608467    -0.39940
C927        C  0.37872374  0.75167752  0.78116558    -0.12220
C928        C  0.40856765  0.76587793  0.77875297     0.04780
C929        C  0.41729906  0.76829729  0.74955684    -0.07510
C930        C  0.39529393  0.75714904  0.72327416    -0.08260
C931        C  0.36539266  0.74307470  0.72568079    -0.02810
C932        C  0.35676054  0.74050339  0.75490401     0.04010
N933        N  0.32566998  0.72782536  0.75813264     0.66520
H934        H  0.37178771  0.75147906  0.80350657     0.15410
H935        H  0.40218160  0.75734701  0.70091501     0.15130
N936        N  0.44849881  0.78072525  0.74638129     0.74220
O937        O  0.32121774  0.71546934  0.78369144    -0.39230
O938        O  0.30192788  0.73244302  0.73657530    -0.39170
O939        O  0.47190425  0.77768549  0.76853538    -0.39880
O940        O  0.45348345  0.79107161  0.72043025    -0.39940
C941        C  0.21071201  0.52472509  0.85192661    -0.12220
C942        C  0.19996611  0.54303406  0.87581715     0.04780
C943        C  0.18857121  0.52219932  0.89870996    -0.07510
C944        C  0.18968750  0.48303379  0.89716157    -0.08260
C945        C  0.20213702  0.46519594  0.87386580    -0.02810
C946        C  0.21208146  0.48645366  0.85084029     0.04010
N947        N  0.22438730  0.46956591  0.82636377     0.66520
H948        H  0.21918510  0.54048244  0.83423513     0.15410
H949        H  0.18170504  0.46635812  0.91454352     0.15130
N950        N  0.17710431  0.53963374  0.92387140     0.74220
O951        O  0.20925874  0.47240438  0.79891499    -0.39230
O952        O  0.25318489  0.46023636  0.83117064    -0.39170
O953        O  0.17038993  0.57359918  0.92324647    -0.39880
O954        O  0.17257331  0.52069034  0.94663320    -0.39940
C955        C  0.08528259  0.77448657  0.88201477    -0.12220
C956        C  0.05552305  0.75836379  0.87041508     0.04780
C957        C  0.05438790  0.72036542  0.86182199    -0.07510
C958        C  0.08280463  0.70013092  0.86479020    -0.08260
C959        C  0.11244043  0.71669344  0.87621628    -0.02810
C960        C  0.11332169  0.75440563  0.88515258     0.04010
N961        N  0.14262758  0.77369813  0.89588673     0.66520
H962        H  0.08713168  0.80330344  0.88898962     0.15410
H963        H  0.08175436  0.67153080  0.85721331     0.15130
N964        N  0.02501880  0.70197739  0.84928499     0.74220
O965        O  0.15054294  0.79988970  0.88005921    -0.39230
O966        O  0.15684494  0.76990785  0.92356398    -0.39170
O967        O  0.50818121  0.71325529  0.82434930    -0.39880
O968        O  0.01911393  0.67070535  0.85958475    -0.39940
C969        C  0.33413790  0.73531659  0.88210626    -0.12220
C970        C  0.30458774  0.75264770  0.87304674     0.04780
C971        C  0.30418253  0.79078132  0.86524382    -0.07510
C972        C  0.33306233  0.80933560  0.86458615    -0.08260
C973        C  0.36240120  0.79141415  0.87334886    -0.02810
C974        C  0.36262618  0.75396145  0.88253998     0.04010
N975        N  0.39147286  0.73336338  0.89059793     0.66520
H976        H  0.33548395  0.70631691  0.88836400     0.15410
H977        H  0.33265620  0.83821274  0.85798998     0.15130
N978        N  0.27521334  0.81147054  0.85914132     0.74220
O979        O  0.39763758  0.71676757  0.91618578    -0.39230
O980        O  0.40663924  0.72489540  0.86985503    -0.39170
O981        O  0.25791436  0.81259420  0.87918368    -0.39880
O982        O  0.27043573  0.83449430  0.83728428    -0.39940
C983        C  0.14371246  0.78920764  0.74371924    -0.12220
C984        C  0.11958675  0.76860702  0.72453752     0.04780
C985        C  0.11315079  0.73226260  0.73295692    -0.07510
C986        C  0.13049485  0.71780107  0.76048410    -0.08260
C987        C  0.15451646  0.73847729  0.77970635    -0.02810
C988        C  0.16099151  0.77478844  0.77126748     0.04010
N989        N  0.18549860  0.79696434  0.78954746     0.66520
H990        H  0.14913791  0.81710608  0.73732701     0.15410
H991        H  0.12518609  0.68985963  0.76686414     0.15130
N992        N  0.08866467  0.71007923  0.71466702     0.74220
O993        O  0.20577727  0.81277992  0.77675572    -0.39230
O994        O  0.18280323  0.80723351  0.81625270    -0.39170
O995        O  0.09144740  0.69969274  0.68801549    -0.39880
O996        O  0.06832368  0.69435233  0.72743216    -0.39940
C997        C  0.22956890  0.68781486  0.98782880    -0.12220
C998        C  0.25358031  0.68806495  0.97050778     0.04780
C999        C  0.28576362  0.68797498  0.98570982    -0.07510
C1000       C  0.29309574  0.68657356  0.51809394    -0.08260
C1001       C  0.26909411  0.68519448  0.53544961    -0.02810
C1002       C  0.23681351  0.68600105  0.52022420     0.04010
N1003       N  0.21116063  0.68561574  0.53692348     0.66520
H1004       H  0.20497813  0.68772438  0.97593579     0.15410
H1005       H  0.31771012  0.68666825  0.52991431     0.15130
N1006       N  0.31112556  0.69000072  0.96876725     0.74220
O1007       O  0.18560334  0.70218312  0.52609720    -0.39230
O1008       O  0.21218235  0.66509251  0.56017032    -0.39170
O1009       O  0.30866007  0.71050768  0.94533623    -0.39880
O1010       O  0.33752302  0.67508066  0.97934728    -0.39940
C1011       C  0.29208279  0.61776221  0.75182936    -0.12220
C1012       C  0.26954770  0.62023385  0.72411076     0.04780
C1013       C  0.23685920  0.61979850  0.72563124    -0.07510
C1014       C  0.22782195  0.61955172  0.75457569    -0.08260
C1015       C  0.25044295  0.61911994  0.78229187    -0.02810
C1016       C  0.28300897  0.61682861  0.78072657     0.04010
N1017       N  0.30719334  0.61368432  0.80813508     0.66520
H1018       H  0.31714552  0.61753116  0.75116292     0.15410
H1019       H  0.20281104  0.62087597  0.75536489     0.15130
N1020       N  0.21249611  0.61985137  0.69820851     0.74220
O1021       O  0.30411197  0.59049294  0.82870277    -0.39230
O1022       O  0.33324373  0.63075767  0.81016732    -0.39170
O1023       O  0.21348587  0.59693809  0.67678857    -0.39880
O1024       O  0.18784942  0.63908312  0.69716696    -0.39940
Fe1025     Fe  0.75311333  0.64797680  0.37874155     1.65780
Fe1026     Fe  0.67941543  0.64604985  0.33658361     1.73250
Fe1027     Fe  0.70757757  0.72294015  0.37654845     1.54410
O1028       O  0.73278121  0.71395075  0.42159706    -0.81630
O1029       O  0.67772296  0.68571394  0.30412544    -0.79940
O1030       O  0.74908009  0.65503775  0.42388065    -0.84140
O1031       O  0.77975768  0.69606970  0.38144346    -0.78990
O1032       O  0.66762595  0.70750689  0.39179477    -0.80770
O1033       O  0.71122350  0.61804497  0.31407993    -0.83510
C1034       C  0.77563455  0.72926329  0.37215770     0.97250
C1035       C  0.74449206  0.68551388  0.43670465     1.04690
O1036       O  0.71325324  0.67249099  0.36412628    -1.12490
O1037       O  0.67967896  0.60376194  0.36778964    -0.74930
O1038       O  0.73200955  0.59596478  0.37795057    -0.78410
O1039       O  0.74801259  0.74197528  0.36265028    -0.79100
C1040       C  0.70387453  0.58346337  0.37565993     0.96160
O1041       O  0.75870748  0.64176371  0.33390336    -0.77060
O1042       O  0.64266462  0.67335485  0.35281496    -0.82250
C1043       C  0.67269295  0.71980774  0.30715109     0.98780
C1044       C  0.64231440  0.69709608  0.37415905     1.04700
O1045       O  0.68067621  0.73683003  0.33293090    -0.77900
C1046       C  0.73968170  0.62616885  0.31189550     1.03000
Fe1047     Fe  0.76905839  0.64809797  0.12771274     1.65780
Fe1048     Fe  0.84197226  0.64848076  0.17184817     1.73250
Fe1049     Fe  0.81579900  0.72281260  0.12883251     1.54420
O1050       O  0.79096052  0.71240917  0.08380337    -0.81630
O1051       O  0.84137090  0.68953366  0.20303765    -0.79940
O1052       O  0.77377131  0.65382161  0.08270648    -0.84140
O1053       O  0.74217065  0.69655158  0.12441905    -0.78990
O1054       O  0.85630482  0.70645588  0.11508006    -0.80770
O1055       O  0.80962937  0.62002753  0.19335247    -0.83510
C1056       C  0.74755934  0.73004037  0.13304276     0.97250
C1057       C  0.77848831  0.68373018  0.06927949     1.04690
O1058       O  0.80897625  0.67317980  0.14248514    -1.12490
O1059       O  0.84316298  0.60538599  0.14182899    -0.74930
O1060       O  0.79082577  0.59616764  0.12847974    -0.78410
O1061       O  0.77547367  0.74262986  0.14154346    -0.79100
C1062       C  0.81938713  0.58478593  0.13152524     0.96160
O1063       O  0.76247044  0.64263479  0.17240000    -0.77060
O1064       O  0.87971408  0.67577878  0.15657506    -0.82250
C1065       C  0.84759460  0.72310643  0.19890435     0.98780
C1066       C  0.88108205  0.69750902  0.13413110     1.04700
O1067       O  0.84194214  0.73839485  0.17237413    -0.77900
C1068       C  0.78098771  0.62756726  0.19483294     1.03000
Fe1069     Fe  0.00344517  0.86308238  0.37567845     1.65780
Fe1070     Fe  0.92989776  0.86093092  0.33302078     1.73250
Fe1071     Fe  0.95849066  0.78657863  0.37543662     1.54420
O1072       O  0.99934065  0.76762121  0.36311699    -0.81630
O1073       O  0.89329284  0.83263541  0.34877452    -0.79940
O1074       O  0.53103885  0.81583819  0.37711136    -0.84140
O1075       O  0.00055098  0.85594857  0.42126591    -0.78990
O1076       O  0.93279870  0.77068873  0.33180387    -0.80770
O1077       O  0.92861832  0.90358187  0.36346804    -0.83510
C1078       C  0.99560883  0.82611303  0.43477749     0.97250
C1079       C  0.52685620  0.78181716  0.36976716     1.04690
O1080       O  0.96397565  0.83671601  0.36165523    -1.12490
O1081       O  0.96058128  0.89070176  0.31080203    -0.74930
O1082       O  0.00870840  0.87032741  0.33072195    -0.78410
O1083       O  0.98303723  0.79743747  0.42037840    -0.79100
C1084       C  0.98908156  0.88428994  0.30848610     0.96160
O1085       O  0.98070041  0.91399249  0.37599177    -0.77060
O1086       O  0.93051068  0.82032623  0.30141054    -0.82250
C1087       C  0.89253913  0.81037402  0.37092704     0.98780
C1088       C  0.92595720  0.78629094  0.30543895     1.04700
O1089       O  0.91759765  0.80110512  0.38940951    -0.77900
C1090       C  0.95204877  0.92486691  0.37316644     1.03000
Fe1091     Fe  0.52073466  0.86091095  0.12610751     1.65780
Fe1092     Fe  0.59453066  0.86220150  0.16821440     1.73250
Fe1093     Fe  0.56670225  0.78509161  0.12785375     1.54420
O1094       O  0.52557657  0.76631191  0.14064985    -0.81630
O1095       O  0.63103085  0.83700355  0.15077695    -0.79940
O1096       O  0.99377191  0.81291854  0.12394845    -0.84140
O1097       O  0.52419346  0.85336677  0.08081622    -0.78990
O1098       O  0.59248465  0.77028465  0.17156262    -0.80770
O1099       O  0.59373273  0.90510339  0.13788931    -0.83510
C1100       C  0.52976258  0.82343981  0.06765344     0.97250
C1101       C  0.49794002  0.77938324  0.13230143     1.04690
O1102       O  0.56086491  0.83592415  0.14039955    -1.12490
O1103       O  0.56321533  0.88913227  0.19174962    -0.74930
O1104       O  0.51519853  0.86778285  0.17101422    -0.78410
O1105       O  0.54262189  0.79526523  0.08245508    -0.79100
C1106       C  0.53458232  0.88186565  0.19359122     0.96160
O1107       O  0.54158895  0.91344392  0.12606913    -0.77060
O1108       O  0.59738077  0.82172059  0.20004391    -0.82250
C1109       C  0.63283951  0.81303248  0.12999983     0.98780
C1110       C  0.60143861  0.78742540  0.19711858     1.04700
O1111       O  0.60830517  0.79789013  0.11410938    -0.77900
C1112       C  0.56991844  0.92564893  0.12919633     1.03000
Fe1113     Fe  0.75413765  0.35997983  0.37619276     1.65780
Fe1114     Fe  0.67915681  0.35996486  0.33675956     1.73250
Fe1115     Fe  0.70892713  0.28432227  0.37709294     1.54410
O1116       O  0.74849702  0.26523339  0.36219416    -0.81630
O1117       O  0.64359315  0.33412222  0.35600378    -0.79940
O1118       O  0.78081237  0.31205407  0.37850748    -0.84140
O1119       O  0.75128853  0.35451787  0.42170855    -0.78990
O1120       O  0.68094496  0.26825804  0.33450992    -0.80770
O1121       O  0.68131533  0.40417693  0.36679718    -0.83510
C1122       C  0.74740050  0.32444605  0.43534032     0.97250
C1123       C  0.77623982  0.27862250  0.36962793     1.04690
O1124       O  0.71394058  0.33458188  0.36340595    -1.12490
O1125       O  0.70970465  0.38613687  0.31170384    -0.74930
O1126       O  0.75823488  0.36524476  0.33105309    -0.78410
O1127       O  0.73571530  0.29521043  0.42116447    -0.79100
C1128       C  0.73826886  0.37934717  0.30924651     0.96160
O1129       O  0.73362417  0.41206936  0.37507984    -0.77060
O1130       O  0.67521698  0.31874802  0.30509664    -0.82250
C1131       C  0.64384882  0.31073427  0.37765069     0.98780
C1132       C  0.67184598  0.28436147  0.30860792     1.04700
O1133       O  0.66957277  0.29906505  0.39355883    -0.77900
C1134       C  0.70574243  0.42472354  0.37312311     1.03000
Fe1135     Fe  0.76978905  0.36150508  0.12481874     1.65780
Fe1136     Fe  0.84205524  0.36231715  0.17070192     1.73250
Fe1137     Fe  0.81561885  0.28590810  0.12860421     1.54420
O1138       O  0.77405093  0.26640685  0.13992984    -0.81630
O1139       O  0.88000408  0.33662261  0.15498894    -0.79940
O1140       O  0.74297178  0.31317004  0.12154145    -0.84140
O1141       O  0.77601991  0.35438789  0.08047159    -0.78990
O1142       O  0.84075251  0.27089847  0.17279580    -0.80770
O1143       O  0.84283163  0.40643656  0.14160493    -0.83510
C1144       C  0.78075684  0.32393892  0.06774516     0.97250
C1145       C  0.74662793  0.27971125  0.13043042     1.04690
O1146       O  0.80929659  0.33647434  0.14125226    -1.12490
O1147       O  0.80875964  0.38782953  0.19264884    -0.74930
O1148       O  0.76143492  0.36811241  0.16836803    -0.78410
O1149       O  0.79232390  0.29553319  0.08297965    -0.79100
C1150       C  0.77966001  0.38029735  0.19239485     0.96160
O1151       O  0.79077473  0.41398379  0.12624849    -0.77060
O1152       O  0.84330934  0.32167787  0.20207476    -0.82250
C1153       C  0.88146748  0.31294733  0.13380929     0.98780
C1154       C  0.84846923  0.28778796  0.19868423     1.04700
O1155       O  0.85687944  0.30118744  0.11566028    -0.77900
C1156       C  0.81904092  0.42669946  0.13156666     1.03000
Fe1157     Fe  0.00363354  0.14617698  0.37612813     1.65780
Fe1158     Fe  0.92978765  0.14492717  0.33391291     1.73250
Fe1159     Fe  0.95766816  0.22136608  0.37527896     1.54410
O1160       O  0.98086871  0.21059805  0.42069399    -0.81630
O1161       O  0.92799051  0.18499111  0.30201923    -0.79940
O1162       O  0.99989650  0.15290394  0.42153567    -0.84140
O1163       O  0.53063829  0.19421964  0.37891078    -0.78990
O1164       O  0.91682798  0.20581569  0.38874917    -0.80770
O1165       O  0.96133651  0.11709804  0.31118143    -0.83510
C1166       C  0.52666802  0.22833795  0.37233683     0.97250
C1167       C  0.99327164  0.18204011  0.43516199     1.04690
O1168       O  0.96373584  0.17118398  0.36181459    -1.12490
O1169       O  0.92999707  0.10252339  0.36473277    -0.74930
O1170       O  0.98224003  0.09417590  0.37597002    -0.78410
O1171       O  0.99911366  0.24186962  0.36428461    -0.79100
C1172       C  0.95396253  0.08228354  0.37414543     0.96160
O1173       O  0.50915912  0.13970302  0.33104445    -0.77060
O1174       O  0.89252230  0.17154613  0.34965058    -0.82250
C1175       C  0.92379094  0.21919134  0.30527948     0.98780
C1176       C  0.89181678  0.19531484  0.37080041     1.04700
O1177       O  0.93241572  0.23638443  0.33100262    -0.77900
C1178       C  0.98967712  0.12514808  0.30874447     1.03000
Fe1179     Fe  0.51898732  0.14558982  0.12554508     1.65780
Fe1180     Fe  0.59301084  0.14662940  0.16769578     1.73250
Fe1181     Fe  0.56273024  0.22310365  0.12916753     1.54410
O1182       O  0.53799673  0.21392374  0.08371638    -0.81630
O1183       O  0.59449014  0.18576479  0.20080018    -0.79940
O1184       O  0.52345902  0.15422589  0.08062635    -0.84140
O1185       O  0.49072030  0.19265740  0.12416049    -0.78990
O1186       O  0.60327165  0.21148575  0.11388505    -0.80770
O1187       O  0.56219048  0.11728169  0.19037451    -0.83510
C1188       C  0.49463407  0.22535839  0.13507241     0.97250
C1189       C  0.52804799  0.18488460  0.06814487     1.04690
O1190       O  0.55839108  0.17187193  0.14065903    -1.12490
O1191       O  0.59319446  0.10454792  0.13641170    -0.74930
O1192       O  0.54107346  0.09438541  0.12458214    -0.78410
O1193       O  0.52208707  0.23926605  0.14356863    -0.79100
C1194       C  0.56958313  0.08345393  0.12697562     0.96160
O1195       O  0.51364026  0.13700378  0.17037867    -0.77060
O1196       O  0.62897216  0.17509229  0.15061487    -0.82250
C1197       C  0.59772722  0.22029580  0.19842535     0.98780
C1198       C  0.62887447  0.19933005  0.12960000     1.04700
O1199       O  0.58904282  0.23749805  0.17295600    -0.77900
C1200       C  0.53351581  0.12327962  0.19266190     1.03000
C1201       C  0.53261347  0.17426338  0.48359762    -0.12220
C1202       C  0.00145711  0.18310540  0.46926054     0.04780
C1203       C  0.97937959  0.19354548  0.48760949    -0.07510
C1204       C  0.98942294  0.19568683  0.01986038    -0.08260
C1205       C  0.52058824  0.18684781  0.03416106    -0.02810
C1206       C  0.54263954  0.17603250  0.01584862     0.04010
N1207       N  0.57499079  0.16666151  0.02930116     0.66520
H1208       H  0.54945460  0.16657401  0.46936434     0.15410
H1209       H  0.97242073  0.20271348  0.03411441     0.15130
N1210       N  0.94646545  0.19967519  0.47425047     0.74220
O1211       O  0.59097440  0.14663202  0.01458673    -0.39230
O1212       O  0.58878191  0.18110400  0.05443130    -0.39170
O1213       O  0.93255017  0.17964866  0.45218836    -0.39880
O1214       O  0.93008100  0.22116027  0.48733046    -0.39940
C1215       C  0.53292186  0.11522399  0.27893986    -0.12220
C1216       C  0.00030749  0.11817158  0.27898558     0.04780
C1217       C  0.97881231  0.11760944  0.25027156    -0.07510
C1218       C  0.99021335  0.11643943  0.22262171    -0.08260
C1219       C  0.52291936  0.11569527  0.22243161    -0.02810
C1220       C  0.54443367  0.11331836  0.25123599     0.04010
N1221       N  0.57801715  0.11006456  0.25306725     0.66520
H1222       H  0.54976862  0.11476075  0.30069165     0.15410
H1223       H  0.97316234  0.11783306  0.20104866     0.15130
N1224       N  0.94540547  0.12141705  0.24847664     0.74220
O1225       O  0.59685735  0.13058960  0.27139354    -0.39230
O1226       O  0.58883934  0.08198748  0.24166341    -0.39170
O1227       O  0.93304371  0.15303551  0.24420165    -0.39880
O1228       O  0.92781952  0.09308294  0.24392270    -0.39940
C1229       C  0.68802277  0.27326420  0.11741362    -0.12220
C1230       C  0.71737292  0.25649389  0.12887537     0.04780
C1231       C  0.71735421  0.21845295  0.13683833    -0.07510
C1232       C  0.68833285  0.19953961  0.13560953    -0.08260
C1233       C  0.65908458  0.21705277  0.12516005    -0.02810
C1234       C  0.65935339  0.25407498  0.11458464     0.04010
N1235       N  0.63076917  0.27339131  0.10163869     0.66520
H1236       H  0.68699552  0.30188964  0.11010004     0.15410
H1237       H  0.68871037  0.17110082  0.14338479     0.15130
N1238       N  0.74622942  0.19835975  0.14607334     0.74220
O1239       O  0.62520789  0.30434279  0.11270809    -0.39230
O1240       O  0.61544801  0.26408985  0.07529784    -0.39170
O1241       O  0.76319726  0.20418231  0.17236678    -0.39880
O1242       O  0.75088749  0.16960860  0.13133684    -0.39940
C1243       C  0.96859567  0.28729553  0.13723727    -0.12220
C1244       C  0.96618638  0.24828618  0.13668592     0.04780
C1245       C  0.93603076  0.23187954  0.13541027    -0.07510
C1246       C  0.90928021  0.25430271  0.13292767    -0.08260
C1247       C  0.91144347  0.29309213  0.13313493    -0.02810
C1248       C  0.94159232  0.31004508  0.13561666     0.04010
N1249       N  0.94518724  0.34969358  0.13524882     0.66520
H1250       H  0.99153352  0.30016457  0.13793040     0.15410
H1251       H  0.88647478  0.24108712  0.13243445     0.15130
N1252       N  0.93216462  0.19263521  0.13821851     0.74220
O1253       O  0.97164109  0.36455285  0.14638070    -0.39230
O1254       O  0.92300963  0.36980112  0.12129314    -0.39170
O1255       O  0.94849402  0.17566836  0.16078811    -0.39880
O1256       O  0.90903551  0.17617494  0.12141403    -0.39940
C1257       C  0.87616325  0.22126397  0.26433701    -0.12220
C1258       C  0.90523206  0.23777853  0.27820096     0.04780
C1259       C  0.91549710  0.27020659  0.26558339    -0.07510
C1260       C  0.89602506  0.28585072  0.23967908    -0.08260
C1261       C  0.86699106  0.26929403  0.22579732    -0.02810
C1262       C  0.85669256  0.23688557  0.23842313     0.04010
N1263       N  0.82595435  0.22107725  0.22665148     0.66520
H1264       H  0.86812730  0.19655336  0.27445385     0.15410
H1265       H  0.90405863  0.31055577  0.22954989     0.15130
N1266       N  0.94628548  0.28587959  0.27725390     0.74220
O1267       O  0.82156474  0.18664092  0.22833877    -0.39230
O1268       O  0.80223352  0.24189124  0.21893331    -0.39170
O1269       O  0.97001776  0.26494850  0.28428510    -0.39880
O1270       O  0.95067211  0.32035680  0.27595275    -0.39940
C1271       C  0.58439036  0.30979870  0.36994927    -0.12220
C1272       C  0.61361733  0.29306885  0.38207163     0.04780
C1273       C  0.61336495  0.25635176  0.39328602    -0.07510
C1274       C  0.58488934  0.23647106  0.38913704    -0.08260
C1275       C  0.55570398  0.25226025  0.37543269    -0.02810
C1276       C  0.55551487  0.29021982  0.36721253     0.04010
N1277       N  0.52660777  0.30942156  0.35571364     0.66520
H1278       H  0.58397622  0.33801862  0.36164563     0.15410
H1279       H  0.58585475  0.20815632  0.39725494     0.15130
N1280       N  0.64181914  0.23806934  0.40817570     0.74220
O1281       O  0.52078396  0.33912928  0.36857236    -0.39230
O1282       O  0.01086217  0.30156765  0.32926980    -0.39170
O1283       O  0.65640158  0.24956305  0.43416258    -0.39880
O1284       O  0.64831189  0.20648107  0.39893082    -0.39940
C1285       C  0.83450698  0.27308034  0.37555622    -0.12220
C1286       C  0.80476542  0.25537540  0.36896993     0.04780
C1287       C  0.80385355  0.21648211  0.36391231    -0.07510
C1288       C  0.83244500  0.19683445  0.36553873    -0.08260
C1289       C  0.86197680  0.21494758  0.37248935    -0.02810
C1290       C  0.86269485  0.25360936  0.37757802     0.04010
N1291       N  0.89185302  0.27419171  0.38324219     0.66520
H1292       H  0.83624164  0.30270955  0.37938678     0.15410
H1293       H  0.83154776  0.16733305  0.36098834     0.15130
N1294       N  0.77447547  0.19637525  0.35708433     0.74220
O1295       O  0.89719632  0.29727150  0.36343889    -0.39230
O1296       O  0.90837949  0.27546695  0.41023530    -0.39170
O1297       O  0.75527004  0.20220632  0.33202709    -0.39880
O1298       O  0.77079631  0.16798338  0.37263057    -0.39940
C1299       C  0.61058314  0.22655072  0.25534575    -0.12220
C1300       C  0.61455815  0.23959911  0.22635046     0.04780
C1301       C  0.63921141  0.26490976  0.22486727    -0.07510
C1302       C  0.65923530  0.27657301  0.25208356    -0.08260
C1303       C  0.65509984  0.26397043  0.28116115    -0.02810
C1304       C  0.63068252  0.23811337  0.28272113     0.04010
N1305       N  0.62549752  0.22379491  0.31162027     0.66520
H1306       H  0.59218418  0.20629717  0.25664594     0.15410
H1307       H  0.67778198  0.29654103  0.25050739     0.15130
N1308       N  0.64514837  0.27782526  0.19591985     0.74220
O1309       O  0.59763444  0.22199567  0.31676848    -0.39230
O1310       O  0.64721266  0.20580667  0.32867685    -0.39170
O1311       O  0.62627975  0.30041588  0.18024162    -0.40320
O1312       O  0.67169171  0.27181604  0.18874263    -0.39940
C1313       C  0.73359680  0.33203858  0.48624974    -0.12220
C1314       C  0.75667908  0.32343347  0.46904971     0.04780
C1315       C  0.78754929  0.31315776  0.48423285    -0.07510
C1316       C  0.79442170  0.31181592  0.01668242    -0.08260
C1317       C  0.77149941  0.32139363  0.03392281    -0.02810
C1318       C  0.74053001  0.33096534  0.01856626     0.04010
N1319       N  0.71565952  0.33834212  0.03530534     0.66520
H1320       H  0.70984653  0.33905868  0.47434105     0.15410
H1321       H  0.81815511  0.30484471  0.02863283     0.15130
N1322       N  0.81215899  0.30465692  0.46735888     0.74220
O1323       O  0.69389616  0.36088675  0.02473403    -0.39230
O1324       O  0.71280808  0.31860102  0.05814748    -0.39170
O1325       O  0.81387941  0.32170418  0.44281825    -0.39880
O1326       O  0.83433022  0.28298390  0.47872054    -0.39940
C1327       C  0.72732294  0.37209418  0.25275889    -0.12220
C1328       C  0.74774745  0.38548719  0.27921757     0.04780
C1329       C  0.77754900  0.40044720  0.27642735    -0.07510
C1330       C  0.78638823  0.40073720  0.24745471    -0.08260
C1331       C  0.76697262  0.38464958  0.22131471    -0.02810
C1332       C  0.73687132  0.37026350  0.22426531     0.04010
N1333       N  0.71687757  0.35047289  0.19966758     0.66520
H1334       H  0.70468389  0.35994707  0.25476047     0.15410
H1335       H  0.80941461  0.41203736  0.24583943     0.15130
N1336       N  0.79913350  0.41563043  0.30246085     0.74220
O1337       O  0.72570205  0.31937800  0.19148388    -0.39230
O1338       O  0.68814920  0.35960529  0.19136957    -0.39170
O1339       O  0.81275743  0.39451134  0.32363189    -0.39880
O1340       O  0.81004789  0.44787585  0.30073010    -0.39940
C1341       C  0.55832462  0.98405280  0.09916549    -0.12220
C1342       C  0.57511126  0.96566684  0.12528503     0.04780
C1343       C  0.59343873  0.98657788  0.14954865    -0.07510
C1344       C  0.59329077  0.02518310  0.14787713    -0.08260
C1345       C  0.57520328  0.04371859  0.12263633    -0.02810
C1346       C  0.55854503  0.02302769  0.09720354     0.04010
N1347       N  0.54206572  0.04093653  0.06951566     0.66520
H1348       H  0.54462058  0.96784397  0.08049288     0.15410
H1349       H  0.60572173  0.04090606  0.16756665     0.15130
N1350       N  0.60937561  0.96942025  0.17756696     0.74220
O1351       O  0.52217309  0.02312546  0.04991937    -0.39230
O1352       O  0.54993298  0.07311300  0.06271673    -0.39170
O1353       O  0.63293402  0.94879893  0.17728180    -0.39880
O1354       O  0.60361156  0.98000947  0.20317714    -0.39940
C1355       C  0.96917754  0.98345697  0.40101220    -0.12220
C1356       C  0.94657514  0.96444498  0.37905876     0.04780
C1357       C  0.92301126  0.98499668  0.35920461    -0.07510
C1358       C  0.92453576  0.02374652  0.35982067    -0.08260
C1359       C  0.94896878  0.04258638  0.37979294    -0.02810
C1360       C  0.97053074  0.02216627  0.40156324     0.04010
N1361       N  0.99435078  0.04025796  0.42393920     0.66520
H1362       H  0.98705992  0.96815281  0.41672804     0.15410
H1363       H  0.90766724  0.03911127  0.34310098     0.15130
N1364       N  0.89931423  0.96728122  0.33627434     0.74220
O1365       O  0.99089212  0.04226852  0.45163135    -0.39230
O1366       O  0.52117648  0.04715712  0.41759193    -0.39170
O1367       O  0.87837847  0.94719034  0.34454636    -0.39880
O1368       O  0.89567978  0.97716689  0.30839091    -0.39940
C1369       C  0.98154227  0.83040501  0.48615928    -0.12220
C1370       C  0.00495875  0.82461642  0.46864836     0.04780
C1371       C  0.53639930  0.81637429  0.48369561    -0.07510
C1372       C  0.54349662  0.81437420  0.01614600    -0.08260
C1373       C  0.52025627  0.82130941  0.03370406    -0.02810
C1374       C  0.98871994  0.82875566  0.01855052     0.04010
N1375       N  0.96361576  0.83350824  0.03553628     0.66520
H1376       H  0.95739851  0.83581492  0.47442784     0.15410
H1377       H  0.56761696  0.80891983  0.02788209     0.15130
N1378       N  0.56132698  0.81020602  0.46668191     0.74220
O1379       O  0.94014092  0.85372799  0.02492038    -0.39230
O1380       O  0.96271160  0.81388971  0.05896384    -0.39170
O1381       O  0.56244092  0.82853873  0.44262293    -0.39880
O1382       O  0.58430839  0.78938946  0.47755723    -0.39940
C1383       C  0.53249794  0.89377719  0.27921003    -0.12220
C1384       C  0.99974369  0.89184076  0.27887888     0.04780
C1385       C  0.97848978  0.89157686  0.24990231    -0.07510
C1386       C  0.99051045  0.88965897  0.22254431    -0.08260
C1387       C  0.52334642  0.88906113  0.22299661    -0.02810
C1388       C  0.54443892  0.89248654  0.25186109     0.04010
N1389       N  0.57811763  0.89172477  0.25429417     0.66520
H1390       H  0.54923407  0.89436638  0.30104267     0.15410
H1391       H  0.97386230  0.88807232  0.20069822     0.15130
N1392       N  0.94472046  0.89180472  0.24762695     0.74220
O1393       O  0.59451417  0.91955460  0.26502620    -0.39230
O1394       O  0.59170250  0.86107984  0.25296154    -0.39170
O1395       O  0.93172931  0.91958065  0.25718448    -0.39880
O1396       O  0.92761180  0.86846902  0.23054197    -0.39940
C1397       C  0.84397949  0.52606544  0.15080094    -0.12220
C1398       C  0.82484522  0.54510137  0.12650246     0.04780
C1399       C  0.80730030  0.52491910  0.10125733    -0.07510
C1400       C  0.80664635  0.48594887  0.10284557    -0.08260
C1401       C  0.82385963  0.46700950  0.12846663    -0.02810
C1402       C  0.84334655  0.48743691  0.15236348     0.04010
N1403       N  0.85966353  0.46998686  0.18008954     0.66520
H1404       H  0.85716486  0.54142238  0.17033839     0.15410
H1405       H  0.79240799  0.47019341  0.08419335     0.15130
N1406       N  0.79063724  0.54340957  0.07397422     0.74220
O1407       O  0.88786665  0.47935935  0.19156840    -0.39230
O1408       O  0.84403810  0.45180973  0.19644524    -0.39170
O1409       O  0.79971237  0.57487031  0.06669886    -0.39880
O1410       O  0.76946741  0.52652837  0.05499249    -0.39940
C1411       C  0.69563028  0.75298779  0.10521252    -0.12220
C1412       C  0.72023578  0.75540358  0.13125709     0.04780
C1413       C  0.71780243  0.78141757  0.15462356    -0.07510
C1414       C  0.68997809  0.80237937  0.15233421    -0.08260
C1415       C  0.66456844  0.79868531  0.12691392    -0.02810
C1416       C  0.66826583  0.77476909  0.10237532     0.04010
N1417       N  0.64448259  0.77196844  0.07458863     0.66520
H1418       H  0.69788635  0.73415976  0.08667622     0.15410
H1419       H  0.68766259  0.82028375  0.17147078     0.15130
N1420       N  0.74205662  0.78495173  0.18189529     0.74220
O1421       O  0.63249787  0.80087818  0.06123492    -0.39230
O1422       O  0.63812974  0.74104161  0.06141183    -0.39170
O1423       O  0.76895835  0.79780038  0.17992696    -0.39880
O1424       O  0.73471339  0.78259805  0.20815568    -0.39940
C1425       C  0.94085251  0.69927328  0.14170547    -0.12220
C1426       C  0.91136960  0.71656600  0.13198211     0.04780
C1427       C  0.91099151  0.75367223  0.12185557    -0.07510
C1428       C  0.93935456  0.77253295  0.12195460    -0.08260
C1429       C  0.96904782  0.75579971  0.13179804    -0.02810
C1430       C  0.96965580  0.71803448  0.14092518     0.04010
N1431       N  0.49882573  0.69791298  0.14856638     0.66520
H1432       H  0.94147680  0.67072106  0.14921438     0.15410
H1433       H  0.93778561  0.80120924  0.11475184     0.15130
N1434       N  0.88199372  0.77377802  0.11320513     0.74220
O1435       O  0.50372353  0.67718939  0.17197919    -0.39230
O1436       O  0.51610278  0.69446970  0.12866316    -0.39170
O1437       O  0.86821988  0.78584934  0.13394482    -0.39880
O1438       O  0.87415490  0.78615661  0.08608489    -0.39940
C1439       C  0.87872374  0.75167753  0.28116556    -0.12220
C1440       C  0.90856766  0.76587793  0.27875296     0.04780
C1441       C  0.91729909  0.76829729  0.24955684    -0.07510
C1442       C  0.89529396  0.75714904  0.22327415    -0.08260
C1443       C  0.86539269  0.74307471  0.22568077    -0.02810
C1444       C  0.85676056  0.74050341  0.25490398     0.04010
N1445       N  0.82566999  0.72782538  0.25813259     0.66520
H1446       H  0.87178771  0.75147907  0.30350655     0.15410
H1447       H  0.90218165  0.75734700  0.20091500     0.15130
N1448       N  0.94849885  0.78072524  0.24638130     0.74220
O1449       O  0.82121774  0.71546936  0.28369139    -0.39230
O1450       O  0.80192790  0.73244305  0.23657525    -0.39170
O1451       O  0.97190428  0.77768548  0.26853540    -0.39880
O1452       O  0.95348350  0.79107159  0.22043027    -0.39940
C1453       C  0.71071201  0.52472507  0.35192662    -0.12220
C1454       C  0.69996612  0.54303405  0.37581716     0.04780
C1455       C  0.68857122  0.52219931  0.39870997    -0.07510
C1456       C  0.68968751  0.48303377  0.39716158    -0.08260
C1457       C  0.70213701  0.46519592  0.37386580    -0.02810
C1458       C  0.71208146  0.48645365  0.35084029     0.04010
N1459       N  0.72438729  0.46956589  0.32636377     0.66520
H1460       H  0.71918510  0.54048243  0.33423513     0.15410
H1461       H  0.68170505  0.46635811  0.41454352     0.15130
N1462       N  0.67710432  0.53963372  0.42387142     0.74220
O1463       O  0.70925873  0.47240437  0.29891499    -0.39230
O1464       O  0.75318488  0.46023633  0.33117063    -0.39170
O1465       O  0.67038995  0.57359917  0.42324648    -0.39880
O1466       O  0.67257333  0.52069032  0.44663321    -0.39940
C1467       C  0.58528259  0.77448655  0.38201480    -0.12220
C1468       C  0.55552306  0.75836377  0.37041509     0.04780
C1469       C  0.55438790  0.72036540  0.36182200    -0.07510
C1470       C  0.58280463  0.70013091  0.36479021    -0.08260
C1471       C  0.61244043  0.71669342  0.37621631    -0.02810
C1472       C  0.61332169  0.75440560  0.38515262     0.04010
N1473       N  0.64262758  0.77369809  0.39588681     0.66520
H1474       H  0.58713168  0.80330341  0.38898966     0.15410
H1475       H  0.58175437  0.67153079  0.35721331     0.15130
N1476       N  0.52501880  0.70197738  0.34928498     0.74220
O1477       O  0.65054295  0.79988970  0.38005932    -0.39230
O1478       O  0.65684493  0.76990777  0.42356405    -0.39170
O1479       O  0.00818121  0.71325527  0.32434932    -0.39880
O1480       O  0.51911393  0.67070534  0.35958472    -0.39940
C1481       C  0.83413790  0.73531658  0.38210626    -0.12220
C1482       C  0.80458774  0.75264770  0.37304675     0.04780
C1483       C  0.80418253  0.79078132  0.36524383    -0.07510
C1484       C  0.83306233  0.80933560  0.36458615    -0.08260
C1485       C  0.86240120  0.79141415  0.37334885    -0.02810
C1486       C  0.86262617  0.75396145  0.38253997     0.04010
N1487       N  0.89147286  0.73336338  0.39059791     0.66520
H1488       H  0.83548396  0.70631690  0.38836399     0.15410
H1489       H  0.83265619  0.83821274  0.35798999     0.15130
N1490       N  0.77521334  0.81147053  0.35914134     0.74220
O1491       O  0.89763759  0.71676758  0.41618577    -0.39230
O1492       O  0.90663922  0.72489539  0.36985501    -0.39170
O1493       O  0.75791436  0.81259418  0.37918371    -0.39880
O1494       O  0.77043572  0.83449430  0.33728430    -0.39940
C1495       C  0.64371242  0.78920766  0.24371929    -0.12220
C1496       C  0.61958674  0.76860703  0.22453755     0.04780
C1497       C  0.61315081  0.73226260  0.23295692    -0.07510
C1498       C  0.63049487  0.71780105  0.26048409    -0.08260
C1499       C  0.65451645  0.73847729  0.27970637    -0.02810
C1500       C  0.66099148  0.77478846  0.27126753     0.04010
N1501       N  0.68549853  0.79696437  0.28954753     0.66520
H1502       H  0.64913786  0.81710612  0.23732708     0.15410
H1503       H  0.62518612  0.68985960  0.26686412     0.15130
N1504       N  0.58866472  0.71007921  0.21466699     0.74220
O1505       O  0.70577721  0.81277997  0.27675583    -0.39230
O1506       O  0.68280312  0.80723353  0.31625276    -0.39170
O1507       O  0.59144750  0.69969271  0.18801548    -0.39880
O1508       O  0.56832370  0.69435232  0.22743210    -0.39940
C1509       C  0.72956891  0.68781489  0.48782881    -0.12220
C1510       C  0.75358032  0.68806493  0.47050779     0.04780
C1511       C  0.78576363  0.68797493  0.48570983    -0.07510
C1512       C  0.79309574  0.68657357  0.01809393    -0.08260
C1513       C  0.76909411  0.68519446  0.03544960    -0.02810
C1514       C  0.73681352  0.68600101  0.02022420     0.04010
N1515       N  0.71116064  0.68561568  0.03692348     0.66520
H1516       H  0.70497814  0.68772443  0.47593580     0.15410
H1517       H  0.81771012  0.68666829  0.02991430     0.15130
N1518       N  0.81112557  0.69000062  0.46876726     0.74220
O1519       O  0.68560335  0.70218307  0.02609721    -0.39230
O1520       O  0.71218236  0.66509245  0.06017032    -0.39170
O1521       O  0.80866010  0.71050756  0.44533624    -0.39880
O1522       O  0.83752302  0.67508053  0.47934731    -0.39940
C1523       C  0.79208279  0.61776224  0.25182936    -0.12220
C1524       C  0.76954770  0.62023388  0.22411076     0.04780
C1525       C  0.73685920  0.61979852  0.22563124    -0.07510
C1526       C  0.72782195  0.61955173  0.25457568    -0.08260
C1527       C  0.75044295  0.61911995  0.28229187    -0.02810
C1528       C  0.78300896  0.61682862  0.28072657     0.04010
N1529       N  0.80719333  0.61368434  0.30813508     0.66520
H1530       H  0.81714552  0.61753118  0.25116292     0.15410
H1531       H  0.70281103  0.62087599  0.25536489     0.15130
N1532       N  0.71249611  0.61985140  0.19820851     0.74220
O1533       O  0.80411198  0.59049294  0.32870276    -0.39230
O1534       O  0.83324371  0.63075773  0.31016733    -0.39170
O1535       O  0.71348586  0.59693812  0.17678857    -0.39880
O1536       O  0.68784942  0.63908316  0.19716696    -0.39940
Fe1537     Fe  0.75311332  0.64797680  0.87874155     1.65780
Fe1538     Fe  0.67941543  0.64604986  0.83658360     1.73250
Fe1539     Fe  0.70757757  0.72294015  0.87654844     1.54410
O1540       O  0.73278121  0.71395076  0.92159705    -0.81630
O1541       O  0.67772297  0.68571394  0.80412543    -0.79940
O1542       O  0.74908008  0.65503776  0.92388065    -0.84140
O1543       O  0.77975768  0.69606971  0.88144345    -0.78990
O1544       O  0.66762595  0.70750690  0.89179475    -0.80770
O1545       O  0.71122350  0.61804496  0.81407993    -0.83510
C1546       C  0.77563455  0.72926329  0.87215769     0.97250
C1547       C  0.74449205  0.68551389  0.93670464     1.04690
O1548       O  0.71325323  0.67249100  0.86412628    -1.12490
O1549       O  0.67967895  0.60376195  0.86778964    -0.74930
O1550       O  0.73200955  0.59596479  0.87795057    -0.78410
O1551       O  0.74801259  0.74197528  0.86265026    -0.79100
C1552       C  0.70387452  0.58346337  0.87565993     0.96160
O1553       O  0.75870748  0.64176371  0.83390336    -0.77060
O1554       O  0.64266461  0.67335486  0.85281494    -0.82250
C1555       C  0.67269296  0.71980774  0.80715107     0.98780
C1556       C  0.64231440  0.69709609  0.87415903     1.04700
O1557       O  0.68067621  0.73683003  0.83293089    -0.77900
C1558       C  0.73968170  0.62616884  0.81189550     1.03000
Fe1559     Fe  0.76905838  0.64809796  0.62771275     1.65780
Fe1560     Fe  0.84197226  0.64848077  0.67184817     1.73250
Fe1561     Fe  0.81579897  0.72281260  0.62883254     1.54420
O1562       O  0.79096050  0.71240919  0.58380339    -0.81630
O1563       O  0.84137088  0.68953365  0.70303767    -0.79940
O1564       O  0.77377131  0.65382162  0.58270649    -0.84140
O1565       O  0.74217063  0.69655157  0.62441906    -0.78990
O1566       O  0.85630479  0.70645591  0.61508006    -0.80770
O1567       O  0.80962937  0.62002752  0.69335247    -0.83510
C1568       C  0.74755931  0.73004036  0.63304277     0.97250
C1569       C  0.77848830  0.68373019  0.56927950     1.04690
O1570       O  0.80897624  0.67317981  0.64248515    -1.12490
O1571       O  0.84316299  0.60538601  0.64182898    -0.74930
O1572       O  0.79082578  0.59616764  0.62847975    -0.78410
O1573       O  0.77547364  0.74262984  0.64154349    -0.79100
C1574       C  0.81938714  0.58478595  0.63152524     0.96160
O1575       O  0.76247043  0.64263478  0.67240000    -0.77060
O1576       O  0.87971407  0.67577883  0.65657507    -0.82250
C1577       C  0.84759458  0.72310642  0.69890437     0.98780
C1578       C  0.88108202  0.69750908  0.63413111     1.04700
O1579       O  0.84194211  0.73839485  0.67237416    -0.77900
C1580       C  0.78098771  0.62756724  0.69483294     1.03000
Fe1581     Fe  0.00344518  0.86308238  0.87567846     1.65780
Fe1582     Fe  0.92989776  0.86093092  0.83302079     1.73250
Fe1583     Fe  0.95849066  0.78657863  0.87543662     1.54420
O1584       O  0.99934065  0.76762121  0.86311699    -0.81630
O1585       O  0.89329284  0.83263542  0.84877453    -0.79940
O1586       O  0.53103885  0.81583820  0.87711136    -0.84140
O1587       O  0.00055098  0.85594857  0.92126592    -0.78990
O1588       O  0.93279869  0.77068874  0.83180388    -0.80770
O1589       O  0.92861832  0.90358188  0.86346805    -0.83510
C1590       C  0.99560883  0.82611303  0.93477750     0.97250
C1591       C  0.52685620  0.78181716  0.86976716     1.04690
O1592       O  0.96397565  0.83671602  0.86165523    -1.12490
O1593       O  0.96058128  0.89070176  0.81080203    -0.74930
O1594       O  0.00870840  0.87032742  0.83072196    -0.78410
O1595       O  0.98303723  0.79743747  0.92037840    -0.79100
C1596       C  0.98908156  0.88428995  0.80848611     0.96160
O1597       O  0.98070041  0.91399249  0.87599178    -0.77060
O1598       O  0.93051068  0.82032623  0.80141055    -0.82250
C1599       C  0.89253913  0.81037403  0.87092705     0.98780
C1600       C  0.92595719  0.78629095  0.80543896     1.04700
O1601       O  0.91759765  0.80110512  0.88940952    -0.77900
C1602       C  0.95204877  0.92486692  0.87316645     1.03000
Fe1603     Fe  0.52073466  0.86091095  0.62610751     1.65780
Fe1604     Fe  0.59453066  0.86220150  0.66821440     1.73250
Fe1605     Fe  0.56670225  0.78509162  0.62785374     1.54420
O1606       O  0.52557657  0.76631190  0.64064982    -0.81630
O1607       O  0.63103084  0.83700356  0.65077695    -0.79940
O1608       O  0.99377192  0.81291854  0.62394843    -0.84140
O1609       O  0.52419346  0.85336679  0.58081622    -0.78990
O1610       O  0.59248466  0.77028465  0.67156261    -0.80770
O1611       O  0.59373273  0.90510340  0.63788933    -0.83510
C1612       C  0.52976258  0.82343984  0.56765343     0.97250
C1613       C  0.49794003  0.77938323  0.63230140     1.04690
O1614       O  0.56086491  0.83592416  0.64039955    -1.12490
O1615       O  0.56321532  0.88913226  0.69174963    -0.74930
O1616       O  0.51519853  0.86778284  0.67101422    -0.78410
O1617       O  0.54262189  0.79526525  0.58245507    -0.79100
C1618       C  0.53458232  0.88186564  0.69359122     0.96160
O1619       O  0.54158894  0.91344393  0.62606914    -0.77060
O1620       O  0.59738075  0.82172058  0.70004391    -0.82250
C1621       C  0.63283950  0.81303250  0.62999983     0.98780
C1622       C  0.60143861  0.78742539  0.69711857     1.04700
O1623       O  0.60830517  0.79789016  0.61410937    -0.77900
C1624       C  0.56991844  0.92564894  0.62919634     1.03000
Fe1625     Fe  0.75413765  0.35997984  0.87619276     1.65780
Fe1626     Fe  0.67915681  0.35996487  0.83675956     1.73250
Fe1627     Fe  0.70892713  0.28432228  0.87709294     1.54410
O1628       O  0.74849702  0.26523340  0.86219416    -0.81630
O1629       O  0.64359315  0.33412223  0.85600379    -0.79940
O1630       O  0.78081237  0.31205408  0.87850748    -0.84140
O1631       O  0.75128853  0.35451788  0.92170855    -0.78990
O1632       O  0.68094496  0.26825805  0.83450993    -0.80770
O1633       O  0.68131533  0.40417694  0.86679718    -0.83510
C1634       C  0.74740050  0.32444606  0.93534031     0.97250
C1635       C  0.77623982  0.27862251  0.86962793     1.04690
O1636       O  0.71394058  0.33458189  0.86340595    -1.12490
O1637       O  0.70970464  0.38613687  0.81170384    -0.74930
O1638       O  0.75823487  0.36524477  0.83105308    -0.78410
O1639       O  0.73571530  0.29521044  0.92116447    -0.79100
C1640       C  0.73826886  0.37934718  0.80924651     0.96160
O1641       O  0.73362417  0.41206937  0.87507984    -0.77060
O1642       O  0.67521697  0.31874802  0.80509664    -0.82250
C1643       C  0.64384882  0.31073428  0.87765070     0.98780
C1644       C  0.67184597  0.28436147  0.80860792     1.04700
O1645       O  0.66957277  0.29906505  0.89355883    -0.77900
C1646       C  0.70574243  0.42472355  0.87312311     1.03000
Fe1647     Fe  0.76978906  0.36150509  0.62481873     1.65780
Fe1648     Fe  0.84205524  0.36231716  0.67070192     1.73250
Fe1649     Fe  0.81561886  0.28590811  0.62860421     1.54420
O1650       O  0.77405094  0.26640686  0.63992984    -0.81630
O1651       O  0.88000408  0.33662263  0.65498895    -0.79940
O1652       O  0.74297179  0.31317005  0.62154144    -0.84140
O1653       O  0.77601992  0.35438790  0.58047160    -0.78990
O1654       O  0.84075251  0.27089849  0.67279581    -0.80770
O1655       O  0.84283164  0.40643657  0.64160493    -0.83510
C1656       C  0.78075684  0.32393893  0.56774516     0.97250
C1657       C  0.74662794  0.27971126  0.63043042     1.04690
O1658       O  0.80929659  0.33647435  0.64125227    -1.12490
O1659       O  0.80875964  0.38782954  0.69264884    -0.74930
O1660       O  0.76143492  0.36811242  0.66836803    -0.78410
O1661       O  0.79232390  0.29553320  0.58297965    -0.79100
C1662       C  0.77966001  0.38029736  0.69239485     0.96160
O1663       O  0.79077473  0.41398380  0.62624849    -0.77060
O1664       O  0.84330934  0.32167788  0.70207477    -0.82250
C1665       C  0.88146749  0.31294734  0.63380929     0.98780
C1666       C  0.84846923  0.28778798  0.69868423     1.04700
O1667       O  0.85687945  0.30118745  0.61566029    -0.77900
C1668       C  0.81904093  0.42669947  0.63156666     1.03000
Fe1669     Fe  0.00363354  0.14617699  0.87612813     1.65780
Fe1670     Fe  0.92978765  0.14492718  0.83391291     1.73250
Fe1671     Fe  0.95766816  0.22136609  0.87527897     1.54410
O1672       O  0.98086871  0.21059805  0.92069400    -0.81630
O1673       O  0.92799051  0.18499113  0.80201923    -0.79940
O1674       O  0.99989650  0.15290395  0.92153567    -0.84140
O1675       O  0.53063829  0.19421965  0.87891079    -0.78990
O1676       O  0.91682798  0.20581569  0.88874918    -0.80770
O1677       O  0.96133651  0.11709806  0.81118142    -0.83510
C1678       C  0.52666802  0.22833796  0.87233684     0.97250
C1679       C  0.99327164  0.18204011  0.93516199     1.04690
O1680       O  0.96373584  0.17118399  0.86181459    -1.12490
O1681       O  0.92999707  0.10252340  0.86473276    -0.74930
O1682       O  0.98224003  0.09417591  0.87597001    -0.78410
O1683       O  0.99911366  0.24186963  0.86428462    -0.79100
C1684       C  0.95396253  0.08228355  0.87414543     0.96160
O1685       O  0.50915912  0.13970303  0.83104445    -0.77060
O1686       O  0.89252230  0.17154614  0.84965058    -0.82250
C1687       C  0.92379093  0.21919136  0.80527949     0.98780
C1688       C  0.89181678  0.19531485  0.87080042     1.04700
O1689       O  0.93241572  0.23638445  0.83100263    -0.77900
C1690       C  0.98967712  0.12514810  0.80874446     1.03000
Fe1691     Fe  0.51898733  0.14558983  0.62554508     1.65780
Fe1692     Fe  0.59301085  0.14662941  0.66769579     1.73250
Fe1693     Fe  0.56273025  0.22310366  0.62916753     1.54410
O1694       O  0.53799674  0.21392374  0.58371638    -0.81630
O1695       O  0.59449015  0.18576480  0.70080018    -0.79940
O1696       O  0.52345902  0.15422590  0.58062635    -0.84140
O1697       O  0.49072030  0.19265741  0.62416049    -0.78990
O1698       O  0.60327166  0.21148575  0.61388505    -0.80770
O1699       O  0.56219049  0.11728169  0.69037451    -0.83510
C1700       C  0.49463407  0.22535840  0.63507242     0.97250
C1701       C  0.52804799  0.18488461  0.56814487     1.04690
O1702       O  0.55839109  0.17187194  0.64065903    -1.12490
O1703       O  0.59319447  0.10454793  0.63641171    -0.74930
O1704       O  0.54107347  0.09438542  0.62458214    -0.78410
O1705       O  0.52208708  0.23926606  0.64356862    -0.79100
C1706       C  0.56958313  0.08345394  0.62697563     0.96160
O1707       O  0.51364027  0.13700379  0.67037868    -0.77060
O1708       O  0.62897217  0.17509230  0.65061487    -0.82250
C1709       C  0.59772722  0.22029581  0.69842535     0.98780
C1710       C  0.62887448  0.19933005  0.62960000     1.04700
O1711       O  0.58904283  0.23749806  0.67295600    -0.77900
C1712       C  0.53351582  0.12327963  0.69266190     1.03000
C1713       C  0.53261347  0.17426336  0.98359763    -0.12220
C1714       C  0.00145711  0.18310540  0.96926054     0.04780
C1715       C  0.97937959  0.19354549  0.98760949    -0.07510
C1716       C  0.98942294  0.19568683  0.51986037    -0.08260
C1717       C  0.52058824  0.18684782  0.53416106    -0.02810
C1718       C  0.54263955  0.17603252  0.51584861     0.04010
N1719       N  0.57499080  0.16666155  0.52930115     0.66520
H1720       H  0.54945460  0.16657398  0.96936435     0.15410
H1721       H  0.97242073  0.20271347  0.53411441     0.15130
N1722       N  0.94646546  0.19967521  0.97425048     0.74220
O1723       O  0.59097441  0.14663207  0.51458673    -0.39230
O1724       O  0.58878192  0.18110405  0.55443130    -0.39170
O1725       O  0.93255016  0.17964868  0.95218837    -0.39880
O1726       O  0.93008101  0.22116030  0.98733046    -0.39940
C1727       C  0.53292187  0.11522400  0.77893986    -0.12220
C1728       C  0.00030749  0.11817160  0.77898558     0.04780
C1729       C  0.97881232  0.11760945  0.75027155    -0.07510
C1730       C  0.99021335  0.11643943  0.72262170    -0.08260
C1731       C  0.52291937  0.11569528  0.72243161    -0.02810
C1732       C  0.54443368  0.11331837  0.75123599     0.04010
N1733       N  0.57801715  0.11006458  0.75306725     0.66520
H1734       H  0.54976862  0.11476077  0.80069165     0.15410
H1735       H  0.97316235  0.11783305  0.70104866     0.15130
N1736       N  0.94540547  0.12141705  0.74847663     0.74220
O1737       O  0.59685736  0.13058962  0.77139355    -0.39230
O1738       O  0.58883935  0.08198750  0.74166341    -0.39170
O1739       O  0.93304372  0.15303553  0.74420169    -0.39880
O1740       O  0.92781951  0.09308295  0.74392262    -0.39940
C1741       C  0.68802277  0.27326421  0.61741362    -0.12220
C1742       C  0.71737292  0.25649390  0.62887537     0.04780
C1743       C  0.71735421  0.21845296  0.63683834    -0.07510
C1744       C  0.68833286  0.19953962  0.63560953    -0.08260
C1745       C  0.65908459  0.21705278  0.62516006    -0.02810
C1746       C  0.65935340  0.25407499  0.61458464     0.04010
N1747       N  0.63076918  0.27339132  0.60163869     0.66520
H1748       H  0.68699552  0.30188964  0.61010004     0.15410
H1749       H  0.68871038  0.17110083  0.64338479     0.15130
N1750       N  0.74622942  0.19835976  0.64607334     0.74220
O1751       O  0.62520789  0.30434280  0.61270809    -0.39230
O1752       O  0.61544802  0.26408986  0.57529785    -0.39170
O1753       O  0.76319727  0.20418232  0.67236678    -0.39880
O1754       O  0.75088750  0.16960862  0.63133684    -0.39940
C1755       C  0.96859568  0.28729554  0.63723725    -0.12220
C1756       C  0.96618638  0.24828619  0.63668592     0.04780
C1757       C  0.93603077  0.23187956  0.63541029    -0.07510
C1758       C  0.90928022  0.25430272  0.63292770    -0.08260
C1759       C  0.91144348  0.29309214  0.63313494    -0.02810
C1760       C  0.94159232  0.31004509  0.63561665     0.04010
N1761       N  0.94518724  0.34969360  0.63524879     0.66520
H1762       H  0.99153352  0.30016459  0.63793037     0.15410
H1763       H  0.88647479  0.24108713  0.63243449     0.15130
N1764       N  0.93216464  0.19263522  0.63821856     0.74220
O1765       O  0.97164109  0.36455287  0.64638065    -0.39230
O1766       O  0.92300962  0.36980112  0.62129312    -0.39170
O1767       O  0.94849405  0.17566839  0.66078815    -0.39880
O1768       O  0.90903552  0.17617495  0.62141410    -0.39940
C1769       C  0.87616324  0.22126399  0.76433702    -0.12220
C1770       C  0.90523205  0.23777855  0.77820097     0.04780
C1771       C  0.91549710  0.27020661  0.76558339    -0.07510
C1772       C  0.89602505  0.28585073  0.73967908    -0.08260
C1773       C  0.86699105  0.26929405  0.72579733    -0.02810
C1774       C  0.85669256  0.23688559  0.73842315     0.04010
N1775       N  0.82595434  0.22107727  0.72665149     0.66520
H1776       H  0.86812729  0.19655338  0.77445387     0.15410
H1777       H  0.90405863  0.31055578  0.72954989     0.15130
N1778       N  0.94628548  0.28587960  0.77725391     0.74220
O1779       O  0.82156473  0.18664095  0.72833879    -0.39230
O1780       O  0.80223351  0.24189127  0.71893332    -0.39170
O1781       O  0.97001776  0.26494851  0.78428510    -0.39880
O1782       O  0.95067212  0.32035682  0.77595276    -0.39940
C1783       C  0.58439036  0.30979871  0.86994927    -0.12220
C1784       C  0.61361733  0.29306887  0.88207164     0.04780
C1785       C  0.61336495  0.25635178  0.89328605    -0.07510
C1786       C  0.58488933  0.23647109  0.88913707    -0.08260
C1787       C  0.55570399  0.25226026  0.87543270    -0.02810
C1788       C  0.55551487  0.29021983  0.86721254     0.04010
N1789       N  0.52660777  0.30942157  0.85571363     0.66520
H1790       H  0.58397622  0.33801863  0.86164562     0.15410
H1791       H  0.58585475  0.20815634  0.89725498     0.15130
N1792       N  0.64181914  0.23806938  0.90817575     0.74220
O1793       O  0.52078396  0.33912929  0.86857234    -0.39230
O1794       O  0.01086218  0.30156764  0.82926978    -0.39170
O1795       O  0.65640157  0.24956311  0.93416262    -0.39880
O1796       O  0.64831189  0.20648110  0.89893089    -0.39940
C1797       C  0.83450698  0.27308034  0.87555624    -0.12220
C1798       C  0.80476542  0.25537541  0.86896993     0.04780
C1799       C  0.80385355  0.21648212  0.86391229    -0.07510
C1800       C  0.83244500  0.19683446  0.86553872    -0.08260
C1801       C  0.86197680  0.21494758  0.87248936    -0.02810
C1802       C  0.86269485  0.25360936  0.87757805     0.04010
N1803       N  0.89185303  0.27419171  0.88324224     0.66520
H1804       H  0.83624164  0.30270955  0.87938683     0.15410
H1805       H  0.83154775  0.16733306  0.86098831     0.15130
N1806       N  0.77447547  0.19637527  0.85708429     0.74220
O1807       O  0.89719634  0.29727151  0.86343896    -0.39230
O1808       O  0.90837948  0.27546693  0.91023536    -0.39170
O1809       O  0.75527005  0.20220636  0.83202705    -0.39880
O1810       O  0.77079630  0.16798339  0.87263051    -0.39940
C1811       C  0.61058313  0.22655074  0.75534575    -0.12220
C1812       C  0.61455815  0.23959911  0.72635046     0.04780
C1813       C  0.63921142  0.26490976  0.72486727    -0.07510
C1814       C  0.65923531  0.27657300  0.75208357    -0.08260
C1815       C  0.65509983  0.26397043  0.78116116    -0.02810
C1816       C  0.63068251  0.23811338  0.78272113     0.04010
N1817       N  0.62549749  0.22379493  0.81162027     0.66520
H1818       H  0.59218417  0.20629719  0.75664593     0.15410
H1819       H  0.67778200  0.29654102  0.75050740     0.15130
N1820       N  0.64514839  0.27782525  0.69591985     0.74220
O1821       O  0.59763441  0.22199571  0.81676847    -0.39230
O1822       O  0.64721263  0.20580671  0.82867687    -0.39170
O1823       O  0.62627978  0.30041587  0.68024162    -0.40320
O1824       O  0.67169174  0.27181602  0.68874265    -0.39940
C1825       C  0.73359679  0.33203855  0.98624974    -0.12220
C1826       C  0.75667908  0.32343348  0.96904971     0.04780
C1827       C  0.78754929  0.31315779  0.98423285    -0.07510
C1828       C  0.79442170  0.31181589  0.51668242    -0.08260
C1829       C  0.77149941  0.32139363  0.53392282    -0.02810
C1830       C  0.74053002  0.33096537  0.51856626     0.04010
N1831       N  0.71565954  0.33834218  0.53530534     0.66520
H1832       H  0.70984652  0.33905864  0.97434105     0.15410
H1833       H  0.81815510  0.30484467  0.52863283     0.15130
N1834       N  0.81215901  0.30465699  0.96735888     0.74220
O1835       O  0.69389620  0.36088683  0.52473403    -0.39230
O1836       O  0.71280808  0.31860109  0.55814748    -0.39170
O1837       O  0.81387941  0.32170425  0.94281825    -0.39880
O1838       O  0.83433024  0.28298398  0.97872054    -0.39940
C1839       C  0.72732294  0.37209418  0.75275888    -0.12220
C1840       C  0.74774745  0.38548720  0.77921756     0.04780
C1841       C  0.77754899  0.40044722  0.77642735    -0.07510
C1842       C  0.78638823  0.40073722  0.74745471    -0.08260
C1843       C  0.76697262  0.38464959  0.72131471    -0.02810
C1844       C  0.73687132  0.37026350  0.72426531     0.04010
N1845       N  0.71687758  0.35047288  0.69966757     0.66520
H1846       H  0.70468389  0.35994706  0.75476046     0.15410
H1847       H  0.80941460  0.41203739  0.74583943     0.15130
N1848       N  0.79913349  0.41563046  0.80246085     0.74220
O1849       O  0.72570207  0.31937800  0.69148388    -0.39230
O1850       O  0.68814920  0.35960527  0.69136956    -0.39170
O1851       O  0.81275741  0.39451138  0.82363189    -0.39880
O1852       O  0.81004786  0.44787588  0.80073009    -0.39940
C1853       C  0.55832462  0.98405280  0.59916550    -0.12220
C1854       C  0.57511126  0.96566685  0.62528504     0.04780
C1855       C  0.59343873  0.98657789  0.64954866    -0.07510
C1856       C  0.59329077  0.02518311  0.64787713    -0.08260
C1857       C  0.57520329  0.04371860  0.62263634    -0.02810
C1858       C  0.55854503  0.02302769  0.59720355     0.04010
N1859       N  0.54206571  0.04093654  0.56951567     0.66520
H1860       H  0.54462057  0.96784397  0.58049290     0.15410
H1861       H  0.60572174  0.04090607  0.66756666     0.15130
N1862       N  0.60937562  0.96942027  0.67756697     0.74220
O1863       O  0.52217306  0.02312547  0.54991940    -0.39230
O1864       O  0.54993300  0.07311299  0.56271673    -0.39170
O1865       O  0.63293403  0.94879893  0.67728181    -0.39880
O1866       O  0.60361157  0.98000949  0.70317715    -0.39940
C1867       C  0.96917755  0.98345698  0.90101221    -0.12220
C1868       C  0.94657514  0.96444498  0.87905877     0.04780
C1869       C  0.92301126  0.98499668  0.85920462    -0.07510
C1870       C  0.92453576  0.02374652  0.85982067    -0.08260
C1871       C  0.94896879  0.04258639  0.87979294    -0.02810
C1872       C  0.97053075  0.02216628  0.90156324     0.04010
N1873       N  0.99435080  0.04025798  0.92393919     0.66520
H1874       H  0.98705994  0.96815282  0.91672804     0.15410
H1875       H  0.90766723  0.03911128  0.84310099     0.15130
N1876       N  0.89931422  0.96728123  0.83627436     0.74220
O1877       O  0.99089214  0.04226855  0.95163133    -0.39230
O1878       O  0.52117650  0.04715712  0.91759191    -0.39170
O1879       O  0.87837846  0.94719035  0.84454640    -0.39880
O1880       O  0.89567975  0.97716690  0.80839093    -0.39940
C1881       C  0.98154227  0.83040499  0.98615929    -0.12220
C1882       C  0.00495875  0.82461641  0.96864837     0.04780
C1883       C  0.53639929  0.81637428  0.98369561    -0.07510
C1884       C  0.54349662  0.81437422  0.51614599    -0.08260
C1885       C  0.52025627  0.82130944  0.53370405    -0.02810
C1886       C  0.98871994  0.82875570  0.51855051     0.04010
N1887       N  0.96361577  0.83350829  0.53553627     0.66520
H1888       H  0.95739851  0.83581489  0.97442785     0.15410
H1889       H  0.56761696  0.80891985  0.52788209     0.15130
N1890       N  0.56132698  0.81020600  0.96668192     0.74220
O1891       O  0.94014093  0.85372804  0.52492037    -0.39230
O1892       O  0.96271159  0.81388975  0.55896382    -0.39170
O1893       O  0.56244092  0.82853872  0.94262294    -0.39880
O1894       O  0.58430839  0.78938945  0.97755724    -0.39940
C1895       C  0.53249794  0.89377719  0.77921004    -0.12220
C1896       C  0.99974369  0.89184076  0.77887889     0.04780
C1897       C  0.97848978  0.89157686  0.74990232    -0.07510
C1898       C  0.99051045  0.88965897  0.72254432    -0.08260
C1899       C  0.52334641  0.88906112  0.72299662    -0.02810
C1900       C  0.54443891  0.89248654  0.75186110     0.04010
N1901       N  0.57811762  0.89172476  0.75429417     0.66520
H1902       H  0.54923407  0.89436639  0.80104268     0.15410
H1903       H  0.97386230  0.88807232  0.70069823     0.15130
N1904       N  0.94472046  0.89180474  0.74762695     0.74220
O1905       O  0.59451416  0.91955459  0.76502622    -0.39230
O1906       O  0.59170249  0.86107984  0.75296153    -0.39170
O1907       O  0.93172932  0.91958068  0.75718450    -0.39880
O1908       O  0.92761180  0.86846905  0.73054198    -0.39940
C1909       C  0.84397950  0.52606545  0.65080094    -0.12220
C1910       C  0.82484524  0.54510139  0.62650246     0.04780
C1911       C  0.80730032  0.52491911  0.60125732    -0.07510
C1912       C  0.80664636  0.48594889  0.60284557    -0.08260
C1913       C  0.82385964  0.46700952  0.62846663    -0.02810
C1914       C  0.84334656  0.48743693  0.65236349     0.04010
N1915       N  0.85966353  0.46998687  0.68008954     0.66520
H1916       H  0.85716486  0.54142239  0.67033839     0.15410
H1917       H  0.79240801  0.47019342  0.58419335     0.15130
N1918       N  0.79063726  0.54340958  0.57397421     0.74220
O1919       O  0.88786665  0.47935936  0.69156841    -0.39230
O1920       O  0.84403809  0.45180975  0.69644524    -0.39170
O1921       O  0.79971239  0.57487032  0.56669886    -0.39880
O1922       O  0.76946743  0.52652838  0.55499249    -0.39940
C1923       C  0.69563026  0.75298778  0.60521253    -0.12220
C1924       C  0.72023576  0.75540357  0.63125710     0.04780
C1925       C  0.71780242  0.78141757  0.65462356    -0.07510
C1926       C  0.68997808  0.80237938  0.65233421    -0.08260
C1927       C  0.66456844  0.79868532  0.62691392    -0.02810
C1928       C  0.66826582  0.77476909  0.60237532     0.04010
N1929       N  0.64448259  0.77196845  0.57458863     0.66520
H1930       H  0.69788633  0.73415974  0.58667624     0.15410
H1931       H  0.68766259  0.82028377  0.67147078     0.15130
N1932       N  0.74205661  0.78495174  0.68189529     0.74220
O1933       O  0.63249787  0.80087820  0.56123492    -0.39230
O1934       O  0.63812975  0.74104163  0.56141181    -0.39170
O1935       O  0.76895833  0.79780041  0.67992695    -0.39880
O1936       O  0.73471338  0.78259805  0.70815568    -0.39940
C1937       C  0.94085249  0.69927337  0.64170558    -0.12220
C1938       C  0.91136958  0.71656605  0.63198209     0.04780
C1939       C  0.91099151  0.75367220  0.62185535    -0.07510
C1940       C  0.93935457  0.77253289  0.62195436    -0.08260
C1941       C  0.96904782  0.75579970  0.63179798    -0.02810
C1942       C  0.96965579  0.71803452  0.64092527     0.04010
N1943       N  0.49882572  0.69791305  0.64856662     0.66520
H1944       H  0.94147677  0.67072119  0.64921462     0.15410
H1945       H  0.93778564  0.80120912  0.61475147     0.15130
N1946       N  0.88199372  0.77377798  0.61320472     0.74220
O1947       O  0.50372347  0.67718958  0.67197950    -0.39230
O1948       O  0.51610282  0.69446963  0.62866346    -0.39170
O1949       O  0.86821931  0.78584855  0.63394425    -0.39880
O1950       O  0.87415547  0.78615737  0.58608469    -0.39940
C1951       C  0.87872374  0.75167753  0.78116558    -0.12220
C1952       C  0.90856765  0.76587794  0.77875297     0.04780
C1953       C  0.91729907  0.76829729  0.74955685    -0.07510
C1954       C  0.89529394  0.75714904  0.72327416    -0.08260
C1955       C  0.86539266  0.74307470  0.72568079    -0.02810
C1956       C  0.85676054  0.74050339  0.75490401     0.04010
N1957       N  0.82566998  0.72782536  0.75813263     0.66520
H1958       H  0.87178771  0.75147907  0.80350657     0.15410
H1959       H  0.90218161  0.75734701  0.70091501     0.15130
N1960       N  0.94849882  0.78072525  0.74638129     0.74220
O1961       O  0.82121774  0.71546934  0.78369144    -0.39230
O1962       O  0.80192788  0.73244302  0.73657530    -0.39170
O1963       O  0.97190426  0.77768550  0.76853539    -0.39880
O1964       O  0.95348346  0.79107160  0.72043026    -0.39940
C1965       C  0.71071198  0.52472508  0.85192660    -0.12220
C1966       C  0.69996611  0.54303406  0.87581715     0.04780
C1967       C  0.68857124  0.52219932  0.89870998    -0.07510
C1968       C  0.68968753  0.48303378  0.89716159    -0.08260
C1969       C  0.70213701  0.46519593  0.87386580    -0.02810
C1970       C  0.71208143  0.48645366  0.85084027     0.04010
N1971       N  0.72438725  0.46956590  0.82636374     0.66520
H1972       H  0.71918505  0.54048244  0.83423510     0.15410
H1973       H  0.68170509  0.46635812  0.91454355     0.15130
N1974       N  0.67710437  0.53963373  0.92387144     0.74220
O1975       O  0.70925867  0.47240439  0.79891497    -0.39230
O1976       O  0.75318483  0.46023633  0.83117060    -0.39170
O1977       O  0.67038999  0.57359918  0.92324651    -0.39880
O1978       O  0.67257340  0.52069034  0.94663325    -0.39940
C1979       C  0.58528259  0.77448656  0.88201478    -0.12220
C1980       C  0.55552306  0.75836378  0.87041508     0.04780
C1981       C  0.55438790  0.72036541  0.86182199    -0.07510
C1982       C  0.58280463  0.70013092  0.86479019    -0.08260
C1983       C  0.61244043  0.71669343  0.87621629    -0.02810
C1984       C  0.61332169  0.75440562  0.88515259     0.04010
N1985       N  0.64262758  0.77369811  0.89588677     0.66520
H1986       H  0.58713168  0.80330342  0.88898964     0.15410
H1987       H  0.58175437  0.67153080  0.85721330     0.15130
N1988       N  0.52501880  0.70197738  0.84928498     0.74220
O1989       O  0.65054295  0.79988970  0.88005926    -0.39230
O1990       O  0.65684494  0.76990782  0.92356401    -0.39170
O1991       O  0.00818121  0.71325528  0.82434932    -0.39880
O1992       O  0.51911393  0.67070535  0.85958472    -0.39940
C1993       C  0.83413790  0.73531659  0.88210626    -0.12220
C1994       C  0.80458774  0.75264770  0.87304674     0.04780
C1995       C  0.80418253  0.79078132  0.86524383    -0.07510
C1996       C  0.83306233  0.80933560  0.86458615    -0.08260
C1997       C  0.86240120  0.79141416  0.87334886    -0.02810
C1998       C  0.86262617  0.75396145  0.88253998     0.04010
N1999       N  0.89147286  0.73336339  0.89059793     0.66520
H2000       H  0.83548396  0.70631691  0.88836400     0.15410
H2001       H  0.83265619  0.83821274  0.85798998     0.15130
N2002       N  0.77521334  0.81147053  0.85914133     0.74220
O2003       O  0.89763758  0.71676758  0.91618578    -0.39230
O2004       O  0.90663923  0.72489540  0.86985503    -0.39170
O2005       O  0.75791436  0.81259419  0.87918369    -0.39880
O2006       O  0.77043572  0.83449430  0.83728429    -0.39940
C2007       C  0.64371244  0.78920765  0.74371926    -0.12220
C2008       C  0.61958675  0.76860702  0.72453753     0.04780
C2009       C  0.61315080  0.73226260  0.73295691    -0.07510
C2010       C  0.63049486  0.71780106  0.76048409    -0.08260
C2011       C  0.65451645  0.73847728  0.77970635    -0.02810
C2012       C  0.66099150  0.77478844  0.77126750     0.04010
N2013       N  0.68549857  0.79696435  0.78954749     0.66520
H2014       H  0.64913789  0.81710610  0.73732703     0.15410
H2015       H  0.62518611  0.68985961  0.76686413     0.15130
N2016       N  0.58866469  0.71007922  0.71466700     0.74220
O2017       O  0.70577724  0.81277994  0.77675577    -0.39230
O2018       O  0.68280318  0.80723351  0.81625272    -0.39170
O2019       O  0.59144744  0.69969273  0.68801548    -0.39880
O2020       O  0.56832369  0.69435232  0.72743213    -0.39940
C2021       C  0.72956891  0.68781486  0.98782880    -0.12220
C2022       C  0.75358031  0.68806494  0.97050778     0.04780
C2023       C  0.78576363  0.68797497  0.98570982    -0.07510
C2024       C  0.79309574  0.68657354  0.51809394    -0.08260
C2025       C  0.76909411  0.68519448  0.53544961    -0.02810
C2026       C  0.73681352  0.68600105  0.52022421     0.04010
N2027       N  0.71116063  0.68561574  0.53692348     0.66520
H2028       H  0.70497813  0.68772438  0.97593580     0.15410
H2029       H  0.81771012  0.68666824  0.52991432     0.15130
N2030       N  0.81112556  0.69000071  0.96876725     0.74220
O2031       O  0.68560335  0.70218313  0.52609721    -0.39230
O2032       O  0.71218235  0.66509252  0.56017033    -0.39170
O2033       O  0.80866007  0.71050767  0.94533623    -0.39880
O2034       O  0.83752302  0.67508064  0.97934728    -0.39940
C2035       C  0.79208279  0.61776221  0.75182936    -0.12220
C2036       C  0.76954770  0.62023385  0.72411076     0.04780
C2037       C  0.73685921  0.61979850  0.72563124    -0.07510
C2038       C  0.72782196  0.61955172  0.75457569    -0.08260
C2039       C  0.75044295  0.61911994  0.78229187    -0.02810
C2040       C  0.78300897  0.61682860  0.78072657     0.04010
N2041       N  0.80719334  0.61368432  0.80813509     0.66520
H2042       H  0.81714552  0.61753115  0.75116292     0.15410
H2043       H  0.70281104  0.62087597  0.75536489     0.15130
N2044       N  0.71249611  0.61985138  0.69820851     0.74220
O2045       O  0.80411198  0.59049293  0.82870277    -0.39230
O2046       O  0.83324373  0.63075769  0.81016732    -0.39170
O2047       O  0.71348587  0.59693809  0.67678857    -0.39880
O2048       O  0.68784942  0.63908314  0.69716696    -0.39940
loop_ 
_geom_bond_atom_site_label_1 
_geom_bond_atom_site_label_2 
_geom_bond_distance 
_geom_bond_site_symmetry_2 
_ccdc_geom_bond_type 
Fe1          O17   2.052       .  S
Fe1           O7   2.067       .  S
Fe1          O14   2.081       .  S
Fe1           O6   2.049       .  S
Fe1          O12   1.928       .  S
Fe2           O5   2.021       .  S
Fe2           O9   2.102       .  S
Fe2          O13   2.059       .  S
Fe2          O18   2.106       .  S
Fe2          O12   1.947       .  S
Fe3          O21   2.105       .  S
Fe3           O8   2.038       .  S
Fe3          O15   2.067       .  S
Fe3           O4   2.096       .  S
Fe3          O12   1.933       .  S
O4           C11   1.277       .  A
O5           C19   1.264       .  A
O6           C11   1.271       .  A
O7           C10   1.271       .  A
O8           C20   1.262       .  A
O9           C22   1.278       .  A
C10          O15   1.267       .  A
C10         C458   1.494       .  S
C11         C486   1.469       .  S
O13          C16   1.267       .  A
O14          C16   1.273       .  A
C16         C430   1.471       .  S
O17          C22   1.269       .  A
O18          C20   1.275       .  A
C19          O21   1.278       .  A
C19         C475   1.473       .  S
C20         C447   1.487       .  S
C22         C503   1.491       .  S
Fe23         O39   2.057       .  S
Fe23         O29   2.093       .  S
Fe23         O36   2.099       .  S
Fe23         O28   2.047       .  S
Fe23         O34   1.931       .  S
Fe24         O27   2.026       .  S
Fe24         O31   2.097       .  S
Fe24         O35   2.050       .  S
Fe24         O40   2.115       .  S
Fe24         O34   1.945       .  S
Fe25         O43   2.101       .  S
Fe25         O30   2.041       .  S
Fe25         O37   2.054       .  S
Fe25         O26   2.095       .  S
Fe25         O34   1.933       .  S
O26          C33   1.276       .  A
O27          C41   1.263       .  A
O28          C33   1.269       .  A
O29          C32   1.275       .  A
O30          C42   1.264       .  A
O31          C44   1.275       .  A
C32          O37   1.266       .  A
C32         C388   1.483       .  S
C33         C489   1.470       .  S
O35          C38   1.270       .  A
O36          C38   1.278       .  A
C38         C374   1.478       .  S
O39          C44   1.268       .  A
O40          C42   1.276       .  A
C41          O43   1.276       .  A
C41         C419   1.462       .  S
C42         C402   1.488       .  S
C44         C500   1.494       .  S
Fe45         O61   2.089       .  S
Fe45         O51   2.057       .  S
Fe45         O58   2.058       .  S
Fe45       O1074   2.078       .  S
Fe45         O56   1.933       .  S
Fe46         O49   2.102       .  S
Fe46         O53   2.051       .  S
Fe46         O57   2.087       .  S
Fe46         O62   2.027       .  S
Fe46         O56   1.949       .  S
Fe47         O65   2.043       .  S
Fe47         O52   2.100       .  S
Fe47         O59   2.091       .  S
Fe47         O48   2.056       .  S
Fe47         O56   1.941       .  S
O48        C1079   1.266       .  A
O49          C63   1.273       .  A
O50       Fe1069   2.078       .  S
O50          C55   1.274       .  A
O51          C54   1.271       .  A
O52          C64   1.276       .  A
O53          C66   1.269       .  A
C54          O59   1.275       .  A
C54         C346   1.471       .  S
C55        O1072   1.266   1_455  A
C55         C444   1.494       .  S
O57          C60   1.271       .  A
O58          C60   1.269       .  A
C60         C360   1.492       .  S
O61          C66   1.276       .  A
O62          C64   1.263       .  A
C63          O65   1.264       .  A
C63         C461   1.484       .  S
C64         C416   1.461       .  S
C66         C332   1.482       .  S
Fe67         O83   2.096       .  S
Fe67         O73   2.051       .  S
Fe67         O80   2.057       .  S
Fe67       O1096   2.073   1_455  S
Fe67         O78   1.943       .  S
Fe68         O71   2.089       .  S
Fe68         O75   2.047       .  S
Fe68         O79   2.096       .  S
Fe68         O84   2.019       .  S
Fe68         O78   1.945       .  S
Fe69         O87   2.048       .  S
Fe69         O74   2.099       .  S
Fe69         O81   2.101       .  S
Fe69         O70   2.069       .  S
Fe69         O78   1.950       .  S
O70          C77   1.266   1_455  A
O71          C85   1.274       .  A
O72       Fe1091   2.073       .  S
O72        C1101   1.271       .  A
O73          C76   1.273       .  A
O74          C86   1.276       .  A
O75          C88   1.265       .  A
C76          O81   1.279       .  A
C76         C349   1.476       .  S
C77        O1096   1.271       .  A
C77        C1429   1.499       .  S
O79          C82   1.274       .  A
O80          C82   1.270       .  A
C82         C363   1.493       .  S
O83          C88   1.274       .  A
O84          C86   1.263       .  A
C85          O87   1.267       .  A
C85         C391   1.491       .  S
C86         C472   1.475       .  S
C88         C318   1.478       .  S
Fe89        O105   2.080       .  S
Fe89         O95   2.046       .  S
Fe89        O102   2.043       .  S
Fe89         O94   2.074       .  S
Fe89        O100   1.934       .  S
Fe90         O93   2.104       .  S
Fe90         O97   2.064       .  S
Fe90        O101   2.098       .  S
Fe90        O106   2.024       .  S
Fe90        O100   1.946       .  S
Fe91        O109   2.039       .  S
Fe91         O96   2.101       .  S
Fe91        O103   2.092       .  S
Fe91         O92   2.060       .  S
Fe91        O100   1.940       .  S
O92          C99   1.266       .  A
O93         C107   1.276       .  A
O94          C99   1.272       .  A
O95          C98   1.270       .  A
O96         C108   1.276       .  A
O97         C110   1.268       .  A
C98         O103   1.276       .  A
C98         C290   1.463       .  S
C99         C262   1.494       .  S
O101        C104   1.278       .  A
O102        C104   1.267       .  A
C104        C304   1.478       .  S
O105        C110   1.271       .  A
O106        C108   1.264       .  A
C107        O109   1.262       .  A
C107        C248   1.491       .  S
C108        C279   1.475       .  S
C110        C433   1.473       .  S
Fe111       O127   2.092       .  S
Fe111       O117   2.043       .  S
Fe111       O124   2.037       .  S
Fe111       O116   2.077       .  S
Fe111       O122   1.939       .  S
Fe112       O115   2.111       .  S
Fe112       O119   2.054       .  S
Fe112       O123   2.094       .  S
Fe112       O128   2.015       .  S
Fe112       O122   1.951       .  S
Fe113       O131   2.040       .  S
Fe113       O118   2.109       .  S
Fe113       O125   2.096       .  S
Fe113       O114   2.067       .  S
Fe113       O122   1.946       .  S
O114        C121   1.268       .  A
O115        C129   1.277       .  A
O116        C121   1.273       .  A
O117        C120   1.270       .  A
O118        C130   1.278       .  A
O119        C132   1.268       .  A
C120        O125   1.277       .  A
C120        C293   1.470       .  S
C121        C206   1.498       .  S
O123        C126   1.276       .  A
O124        C126   1.265       .  A
C126        C307   1.491       .  S
O127        C132   1.274       .  A
O128        C130   1.260       .  A
C129        O131   1.265       .  A
C129        C223   1.483       .  S
C130        C237   1.466       .  S
C132        C377   1.481       .  S
Fe133       O146   2.088       .  S
Fe133       O138   2.056       .  S
Fe133      O1173   2.063       .  S
Fe133      O1163   2.074       .  S
Fe133       O144   1.936       .  S
Fe134       O137   2.013       .  S
Fe134       O141   2.097       .  S
Fe134       O145   2.051       .  S
Fe134       O150   2.102       .  S
Fe134       O144   1.954       .  S
Fe135       O153   2.114       .  S
Fe135       O140   2.036       .  S
Fe135       O147   2.069       .  S
Fe135       O136   2.094       .  S
Fe135       O144   1.942       .  S
O136        C143   1.278       .  A
O137        C151   1.262       .  A
O138        C143   1.272       .  A
O139      Fe1157   2.074       .  S
O139        C142   1.272       .  A
O140        C152   1.259       .  A
O141        C154   1.275       .  A
C142       O1171   1.268   1_455  A
C142        C251   1.498       .  S
C143        C178   1.477       .  S
O145        C148   1.268       .  A
O146        C148   1.274       .  A
O147       C1166   1.268       .  A
C148        C335   1.479       .  S
O149      Fe1157   2.063       .  S
O149       C1178   1.271   1_455  A
O150        C152   1.272       .  A
C151        O153   1.281       .  A
C151        C234   1.467       .  S
C152        C265   1.483       .  S
C154       O1173   1.271       .  A
C154        C192   1.494       .  S
Fe155       O171   2.060       .  S
Fe155       O161   2.089   1_455  S
Fe155       O168   2.088       .  S
Fe155       O160   2.054       .  S
Fe155       O166   1.936       .  S
Fe156       O159   2.023       .  S
Fe156       O163   2.095       .  S
Fe156       O167   2.053       .  S
Fe156       O172   2.111       .  S
Fe156       O166   1.947       .  S
Fe157       O175   2.101       .  S
Fe157       O162   2.032       .  S
Fe157       O169   2.058       .  S
Fe157       O158   2.102       .  S
Fe157       O166   1.939       .  S
O158        C165   1.278       .  A
O159        C173   1.262       .  A
O160        C165   1.271       .  A
O161        C164   1.273       .  A
O162        C174   1.261       .  A
O163        C176   1.275       .  A
C164        O169   1.266   1_655  A
C164       C1244   1.493       .  S
C165        C181   1.473       .  S
O167        C170   1.268       .  A
O168        C170   1.273       .  A
C170        C321   1.476       .  S
O171        C176   1.273       .  A
O172        C174   1.277       .  A
C173        O175   1.277       .  A
C173        C276   1.473       .  S
C174        C209   1.491       .  S
C176        C195   1.498       .  S
C177        H184   1.084       .  S
C177       C1202   1.402       .  A
C177        C694   1.405       .  A
C178        C179   1.414       .  A
C178       C1201   1.402       .  A
C179        C692   1.406       .  A
C179        N186   1.439       .  S
C180        H185   1.084       .  S
C180        C691   1.406   1_554  A
C180       C1205   1.402       .  A
C181        C182   1.416       .  A
C181       C1204   1.402   1_455  A
C182        C689   1.405   1_554  A
C182        N183   1.442       .  S
N183        O187   1.263       .  A
N183        O188   1.261       .  A
N186        O189   1.262       .  A
N186        O190   1.263       .  A
C191        H198   1.083       .  S
C191        C196   1.408       .  A
C191       C1216   1.406       .  A
C192        C193   1.414       .  A
C192       C1215   1.406       .  A
C193        C194   1.402       .  A
C193        N200   1.429       .  S
C194        H199   1.083       .  S
C194       C1219   1.407       .  A
C195        C196   1.421       .  A
C195       C1218   1.407   1_455  A
C196        N197   1.434       .  S
N197        O201   1.263       .  A
N197        O202   1.262       .  A
N200        O203   1.262       .  A
N200        O204   1.262       .  A
C205        H212   1.083       .  S
C205        C206   1.404       .  A
C205        C210   1.394       .  A
C206        C207   1.420       .  A
C207        C208   1.410       .  A
C207        N214   1.430       .  S
C208        H213   1.084       .  S
C208        C209   1.405       .  A
C209        C210   1.419       .  A
C210        N211   1.434       .  S
N211        O215   1.262       .  A
N211        O216   1.262       .  A
N214        O217   1.260       .  A
N214        O218   1.262       .  A
C219        H226   1.082       .  S
C219        C220   1.413       .  A
C219        C224   1.416       .  A
C220       C1188   1.493       .  S
C220        C221   1.413       .  A
C221        C222   1.396       .  A
C221        N228   1.436       .  S
C222        H227   1.084       .  S
C222        C223   1.405       .  A
C223        C224   1.414       .  A
C224        N225   1.441       .  S
N225        O229   1.263       .  A
N225        O230   1.263       .  A
N228        O231   1.262       .  A
N228        O232   1.263       .  A
C233        H240   1.084       .  S
C233        C234   1.407       .  A
C233        C238   1.400       .  A
C234        C235   1.405       .  A
C235        C236   1.400       .  A
C235        N242   1.435       .  S
C236        H241   1.084       .  S
C236        C237   1.407       .  A
C237        C238   1.405       .  A
C238        N239   1.436       .  S
N239        O243   1.263       .  A
N239        O244   1.262       .  A
N242        O245   1.262       .  A
N242        O246   1.263       .  A
C247        H254   1.084       .  S
C247        C248   1.405       .  A
C247        C252   1.409       .  A
C248        C249   1.419       .  A
C249        C250   1.396       .  A
C249        N256   1.434       .  S
C250        H255   1.084       .  S
C250        C251   1.405       .  A
C251        C252   1.420       .  A
C252        N253   1.430       .  S
N253        O257   1.262       .  A
N253       O1282   1.260       .  A
N256        O259   1.262       .  A
N256        O260   1.262       .  A
O258       N1277   1.260       .  A
C261        H268   1.084       .  S
C261        C262   1.404       .  A
C261        C266   1.391       .  A
C262        C263   1.422       .  A
C263        C264   1.411       .  A
C263        N270   1.432       .  S
C264        H269   1.084       .  S
C264        C265   1.403       .  A
C265        C266   1.414       .  A
C266        N267   1.432       .  S
N267        O271   1.262       .  A
N267        O272   1.262       .  A
N270        O273   1.262       .  A
N270        O274   1.262       .  A
C275        H282   1.084       .  S
C275        C276   1.406       .  A
C275        C280   1.402       .  A
C276        C277   1.407       .  A
C277        C278   1.396       .  A
C277        N284   1.430       .  S
C278        H283   1.085       .  S
C278        C279   1.406       .  A
C279        C280   1.413       .  A
C280        N281   1.435       .  S
N281        O285   1.262       .  A
N281        O286   1.262       .  A
N284        O287   1.262       .  A
N284        O288   1.261       .  A
C289        H296   1.084       .  S
C289        C290   1.398       .  A
C289        C806   1.399       .  A
C290        C291   1.415       .  A
C291        C804   1.406       .  A
C291        N298   1.441       .  S
C292        H297   1.083       .  S
C292        C293   1.401       .  A
C292        C803   1.406   1_554  A
C293        C294   1.414       .  A
C294        C801   1.399   1_554  A
C294        N295   1.439       .  S
N295        O299   1.263       .  A
N295        O300   1.262       .  A
N298        O301   1.262       .  A
N298        O302   1.263       .  A
C303        H310   1.084       .  S
C303        C304   1.400       .  A
C303        C308   1.399       .  A
C304        C305   1.415       .  A
C305        C306   1.404       .  A
C305        N312   1.434       .  S
C306        H311   1.083       .  S
C306        C307   1.407       .  A
C307        C308   1.421       .  A
C308        N309   1.433       .  S
N309        O313   1.262       .  A
N309        O314   1.262       .  A
N312        O315   1.262       .  A
N312        O316   1.262       .  A
C317        H324   1.083       .  S
C317        C318   1.405       .  A
C317        C322   1.412   1_565  A
C318        C319   1.413       .  A
C319        C320   1.398   1_565  A
C319        N326   1.435       .  S
C320        H325   1.084       .  S
C320        C321   1.401       .  A
C321        C322   1.417       .  A
C322        N323   1.443       .  S
N323        O327   1.263       .  A
N323        O328   1.263       .  A
N326        O329   1.262       .  A
N326        O330   1.263       .  A
C331        H338   1.084       .  S
C331        C332   1.405       .  A
C331        C336   1.400   1_565  A
C332        C333   1.417       .  A
C333        C334   1.402   1_565  A
C333        N340   1.434       .  S
C334        H339   1.084       .  S
C334        C335   1.403       .  A
C335        C336   1.410       .  A
C336        N337   1.430       .  S
N337        O341   1.262       .  A
N337       O1366   1.262       .  A
N340        O343   1.262       .  A
N340        O344   1.263       .  A
O342       N1361   1.262   1_455  A
C345        H352   1.083       .  S
C345        C346   1.400       .  A
C345        C862   1.404       .  A
C346       C1371   1.417       .  A
C347       C1370   1.417       .  A
C347        C860   1.407       .  A
C347        N354   1.441       .  S
C348        H353   1.083       .  S
C348        C349   1.402       .  A
C348        C859   1.407   1_554  A
C349       C1374   1.415   1_455  A
C350        C857   1.404   1_554  A
C350       C1373   1.415       .  A
C350        N351   1.440       .  S
N351        O355   1.263       .  A
N351        O356   1.262       .  A
N354        O357   1.262       .  A
N354        O358   1.263       .  A
C359        H366   1.083       .  S
C359        C364   1.402       .  A
C359       C1384   1.405   1_455  A
C360        C361   1.418       .  A
C360       C1383   1.405       .  A
C361        C362   1.405       .  A
C361        N368   1.434       .  S
C362        H367   1.083       .  S
C362       C1387   1.407       .  A
C363        C364   1.416       .  A
C363       C1386   1.407   1_455  A
C364        N365   1.430       .  S
N365        O369   1.262       .  A
N365        O370   1.261       .  A
N368        O371   1.262       .  A
N368        O372   1.262       .  A
C373        H380   1.084       .  S
C373        C374   1.401       .  A
C373        C378   1.399       .  A
C374        C375   1.415       .  A
C375        C376   1.411       .  A
C375        N382   1.442       .  S
C376        H381   1.083       .  S
C376        C377   1.405       .  A
C377        C378   1.415       .  A
C378        N379   1.435       .  S
N379        O383   1.262       .  A
N379        O384   1.261       .  A
N382        O385   1.263       .  A
N382        O386   1.263       .  A
C387        H394   1.082       .  S
C387        C388   1.403       .  A
C387        C392   1.403       .  A
C388        C389   1.413       .  A
C389        C390   1.405       .  A
C389        N396   1.434       .  S
C390        H395   1.083       .  S
C390        C391   1.409       .  A
C391        C392   1.418       .  A
C392        N393   1.437       .  S
N393        O397   1.263       .  A
N393        O398   1.263       .  A
N396        O399   1.262       .  A
N396        O400   1.262       .  A
C401        H408   1.084       .  S
C401        C402   1.405       .  A
C401        C406   1.414       .  A
C402        C403   1.414       .  A
C403        C404   1.392       .  A
C403        N410   1.431       .  S
C404        H409   1.084       .  S
C404        C405   1.405       .  A
C405       C1101   1.499       .  S
C405        C406   1.423       .  A
C406       N1431   1.434       .  S
N407       C1430   1.434       .  S
N407        O411   1.262   1_655  A
N407        O412   1.263   1_655  A
N410        O413   1.262       .  A
N410        O414   1.262       .  A
C415        H422   1.085       .  S
C415        C416   1.402       .  A
C415        C420   1.401       .  A
C416        C417   1.414       .  A
C417        C418   1.402       .  A
C417        N424   1.444       .  S
C418        H423   1.084       .  S
C418        C419   1.402       .  A
C419        C420   1.413       .  A
C420        N421   1.443       .  S
N421        O425   1.263       .  A
N421        O426   1.263       .  A
N424        O427   1.263       .  A
N424        O428   1.263       .  A
C429        H436   1.085       .  S
C429        C430   1.398       .  A
C429        C434   1.386       .  A
C430        C431   1.422       .  A
C431        C432   1.419       .  A
C431        N438   1.445       .  S
C432        H437   1.083       .  S
C432        C433   1.405       .  A
C433        C434   1.406       .  A
C434        N435   1.429       .  S
N435        O439   1.262       .  A
N435        O440   1.261       .  A
N438        O441   1.262       .  A
N438        O442   1.263       .  A
C443        H450   1.084       .  S
C443        C444   1.404       .  A
C443        C448   1.393       .  A
C444        C445   1.422       .  A
C445        C446   1.410       .  A
C445        N452   1.434       .  S
C446        H451   1.084       .  S
C446        C447   1.404       .  A
C447        C448   1.417       .  A
C448        N449   1.432       .  S
N449        O453   1.262       .  A
N449        O454   1.262       .  A
N452        O456   1.263       .  A
N452       O1479   1.262       .  A
O455       N1476   1.262       .  A
C457        H464   1.084       .  S
C457        C458   1.405       .  A
C457        C462   1.391       .  A
C458        C459   1.421       .  A
C459        C460   1.412       .  A
C459        N466   1.435       .  S
C460        H465   1.084       .  S
C460        C461   1.405       .  A
C461        C462   1.414       .  A
C462        N463   1.433       .  S
N463        O467   1.262       .  A
N463        O468   1.261       .  A
N466        O469   1.263       .  A
N466        O470   1.262       .  A
C471        H478   1.084       .  S
C471        C472   1.411       .  A
C471        C476   1.398       .  A
C472        C473   1.407       .  A
C473        C474   1.399       .  A
C473        N480   1.434       .  S
C474        H479   1.084       .  S
C474        C475   1.410       .  A
C475        C476   1.407       .  A
C476        N477   1.434       .  S
N477        O481   1.262       .  A
N477        O482   1.262       .  A
N480        O483   1.262       .  A
N480        O484   1.262       .  A
C485        H492   1.083       .  S
C485        C486   1.399       .  A
C485       C1002   1.404       .  A
C486        C487   1.413       .  A
C487       C1000   1.403       .  A
C487        N494   1.439       .  S
C488        H493   1.083       .  S
C488        C489   1.400       .  A
C488        C999   1.403   1_554  A
C489        C490   1.418       .  A
C490        C997   1.404   1_554  A
C490        N491   1.441       .  S
N491        O495   1.263       .  A
N491        O496   1.262       .  A
N494        O497   1.262       .  A
N494        O498   1.263       .  A
C499        H506   1.083       .  S
C499        C500   1.407       .  A
C499        C504   1.405       .  A
C500        C501   1.419       .  A
C501        C502   1.406       .  A
C501        N508   1.436       .  S
C502        H507   1.083       .  S
C502        C503   1.405       .  A
C503        C504   1.417       .  A
C504        N505   1.437       .  S
N505        O509   1.263       .  A
N505        O510   1.263       .  A
N508        O511   1.263       .  A
N508        O512   1.263       .  A
Fe513       O529   2.052       .  S
Fe513       O519   2.067       .  S
Fe513       O526   2.081       .  S
Fe513       O518   2.049       .  S
Fe513       O524   1.928       .  S
Fe514       O517   2.021       .  S
Fe514       O521   2.102       .  S
Fe514       O525   2.059       .  S
Fe514       O530   2.106       .  S
Fe514       O524   1.947       .  S
Fe515       O533   2.105       .  S
Fe515       O520   2.038       .  S
Fe515       O527   2.067       .  S
Fe515       O516   2.096       .  S
Fe515       O524   1.933       .  S
O516        C523   1.277       .  A
O517        C531   1.264       .  A
O518        C523   1.271       .  A
O519        C522   1.271       .  A
O520        C532   1.262       .  A
O521        C534   1.278       .  A
C522        O527   1.267       .  A
C522        C970   1.494       .  S
C523        C998   1.469       .  S
O525        C528   1.267       .  A
O526        C528   1.273       .  A
C528        C942   1.471       .  S
O529        C534   1.269       .  A
O530        C532   1.275       .  A
C531        O533   1.278       .  A
C531        C987   1.473       .  S
C532        C959   1.487       .  S
C534       C1015   1.491       .  S
Fe535       O551   2.057       .  S
Fe535       O541   2.093       .  S
Fe535       O548   2.099       .  S
Fe535       O540   2.047       .  S
Fe535       O546   1.931       .  S
Fe536       O539   2.026       .  S
Fe536       O543   2.097       .  S
Fe536       O547   2.050       .  S
Fe536       O552   2.115       .  S
Fe536       O546   1.945       .  S
Fe537       O555   2.101       .  S
Fe537       O542   2.041       .  S
Fe537       O549   2.054       .  S
Fe537       O538   2.095       .  S
Fe537       O546   1.933       .  S
O538        C545   1.276       .  A
O539        C553   1.263       .  A
O540        C545   1.269       .  A
O541        C544   1.275       .  A
O542        C554   1.264       .  A
O543        C556   1.275       .  A
C544        O549   1.266       .  A
C544        C900   1.483       .  S
C545       C1001   1.470       .  S
O547        C550   1.270       .  A
O548        C550   1.278       .  A
C550        C886   1.478       .  S
O551        C556   1.268       .  A
O552        C554   1.276       .  A
C553        O555   1.276       .  A
C553        C931   1.462       .  S
C554        C914   1.488       .  S
C556       C1012   1.494       .  S
Fe557       O573   2.089       .  S
Fe557       O563   2.057       .  S
Fe557       O570   2.058       .  S
Fe557      O1586   2.078       .  S
Fe557       O568   1.933       .  S
Fe558       O561   2.102       .  S
Fe558       O565   2.051       .  S
Fe558       O569   2.087       .  S
Fe558       O574   2.027       .  S
Fe558       O568   1.949       .  S
Fe559       O577   2.043       .  S
Fe559       O564   2.100       .  S
Fe559       O571   2.091       .  S
Fe559       O560   2.056       .  S
Fe559       O568   1.941       .  S
O560       C1591   1.266       .  A
O561        C575   1.273       .  A
O562      Fe1581   2.078       .  S
O562        C567   1.274       .  A
O563        C566   1.271       .  A
O564        C576   1.276       .  A
O565        C578   1.269       .  A
C566        O571   1.275       .  A
C566        C858   1.471       .  S
C567       O1584   1.266   1_455  A
C567        C956   1.494       .  S
O569        C572   1.271       .  A
O570        C572   1.269       .  A
C572        C872   1.492       .  S
O573        C578   1.276       .  A
O574        C576   1.263       .  A
C575        O577   1.264       .  A
C575        C973   1.484       .  S
C576        C928   1.461       .  S
C578        C844   1.482       .  S
Fe579       O595   2.096       .  S
Fe579       O585   2.051       .  S
Fe579       O592   2.057       .  S
Fe579      O1608   2.073   1_455  S
Fe579       O590   1.943       .  S
Fe580       O583   2.089       .  S
Fe580       O587   2.047       .  S
Fe580       O591   2.096       .  S
Fe580       O596   2.019       .  S
Fe580       O590   1.945       .  S
Fe581       O599   2.048       .  S
Fe581       O586   2.099       .  S
Fe581       O593   2.101       .  S
Fe581       O582   2.069       .  S
Fe581       O590   1.950       .  S
O582        C589   1.266   1_455  A
O583        C597   1.274       .  A
O584      Fe1603   2.073       .  S
O584       C1613   1.271       .  A
O585        C588   1.273       .  A
O586        C598   1.276       .  A
O587        C600   1.265       .  A
C588        O593   1.279       .  A
C588        C861   1.476       .  S
C589       O1608   1.271       .  A
C589       C1941   1.499       .  S
O591        C594   1.274       .  A
O592        C594   1.270       .  A
C594        C875   1.493       .  S
O595        C600   1.274       .  A
O596        C598   1.263       .  A
C597        O599   1.267       .  A
C597        C903   1.491       .  S
C598        C984   1.475       .  S
C600        C830   1.478       .  S
Fe601       O617   2.080       .  S
Fe601       O607   2.046       .  S
Fe601       O614   2.043       .  S
Fe601       O606   2.074       .  S
Fe601       O612   1.934       .  S
Fe602       O605   2.104       .  S
Fe602       O609   2.064       .  S
Fe602       O613   2.098       .  S
Fe602       O618   2.024       .  S
Fe602       O612   1.946       .  S
Fe603       O621   2.039       .  S
Fe603       O608   2.101       .  S
Fe603       O615   2.092       .  S
Fe603       O604   2.060       .  S
Fe603       O612   1.940       .  S
O604        C611   1.266       .  A
O605        C619   1.276       .  A
O606        C611   1.272       .  A
O607        C610   1.270       .  A
O608        C620   1.276       .  A
O609        C622   1.268       .  A
C610        O615   1.276       .  A
C610        C802   1.463       .  S
C611        C774   1.494       .  S
O613        C616   1.278       .  A
O614        C616   1.267       .  A
C616        C816   1.478       .  S
O617        C622   1.271       .  A
O618        C620   1.264       .  A
C619        O621   1.262       .  A
C619        C760   1.491       .  S
C620        C791   1.475       .  S
C622        C945   1.473       .  S
Fe623       O639   2.092       .  S
Fe623       O629   2.043       .  S
Fe623       O636   2.037       .  S
Fe623       O628   2.077       .  S
Fe623       O634   1.939       .  S
Fe624       O627   2.111       .  S
Fe624       O631   2.054       .  S
Fe624       O635   2.094       .  S
Fe624       O640   2.015       .  S
Fe624       O634   1.951       .  S
Fe625       O643   2.040       .  S
Fe625       O630   2.109       .  S
Fe625       O637   2.096       .  S
Fe625       O626   2.067       .  S
Fe625       O634   1.946       .  S
O626        C633   1.268       .  A
O627        C641   1.277       .  A
O628        C633   1.273       .  A
O629        C632   1.270       .  A
O630        C642   1.278       .  A
O631        C644   1.268       .  A
C632        O637   1.277       .  A
C632        C805   1.470       .  S
C633        C718   1.498       .  S
O635        C638   1.276       .  A
O636        C638   1.265       .  A
C638        C819   1.491       .  S
O639        C644   1.274       .  A
O640        C642   1.260       .  A
C641        O643   1.265       .  A
C641        C735   1.483       .  S
C642        C749   1.466       .  S
C644        C889   1.481       .  S
Fe645      O1685   2.063       .  S
Fe645      O1675   2.074       .  S
Fe645       O658   2.088       .  S
Fe645       O650   2.056       .  S
Fe645       O656   1.936       .  S
Fe646       O649   2.013       .  S
Fe646       O653   2.097       .  S
Fe646       O657   2.051       .  S
Fe646       O662   2.102       .  S
Fe646       O656   1.954       .  S
Fe647       O665   2.114       .  S
Fe647       O652   2.036       .  S
Fe647       O659   2.069       .  S
Fe647       O648   2.094       .  S
Fe647       O656   1.942       .  S
O648        C655   1.278       .  A
O649        C663   1.262       .  A
O650        C655   1.272       .  A
O651      Fe1669   2.074       .  S
O651        C654   1.272       .  A
O652        C664   1.259       .  A
O653        C666   1.275       .  A
C654       O1683   1.268   1_455  A
C654        C763   1.498       .  S
C655        C690   1.477       .  S
O657        C660   1.268       .  A
O658        C660   1.274       .  A
O659       C1678   1.268       .  A
C660        C847   1.479       .  S
O661      Fe1669   2.063       .  S
O661       C1690   1.271   1_455  A
O662        C664   1.272       .  A
C663        O665   1.281       .  A
C663        C746   1.467       .  S
C664        C777   1.483       .  S
C666       O1685   1.271       .  A
C666        C704   1.494       .  S
Fe667       O683   2.060       .  S
Fe667       O673   2.089   1_455  S
Fe667       O680   2.088       .  S
Fe667       O672   2.054       .  S
Fe667       O678   1.936       .  S
Fe668       O671   2.023       .  S
Fe668       O675   2.095       .  S
Fe668       O679   2.053       .  S
Fe668       O684   2.111       .  S
Fe668       O678   1.947       .  S
Fe669       O687   2.101       .  S
Fe669       O674   2.032       .  S
Fe669       O681   2.058       .  S
Fe669       O670   2.102       .  S
Fe669       O678   1.939       .  S
O670        C677   1.278       .  A
O671        C685   1.262       .  A
O672        C677   1.271       .  A
O673        C676   1.273       .  A
O674        C686   1.261       .  A
O675        C688   1.275       .  A
C676        O681   1.266   1_655  A
C676       C1756   1.493       .  S
C677        C693   1.473       .  S
O679        C682   1.268       .  A
O680        C682   1.273       .  A
C682        C833   1.476       .  S
O683        C688   1.273       .  A
O684        C686   1.277       .  A
C685        O687   1.277       .  A
C685        C788   1.473       .  S
C686        C721   1.491       .  S
C688        C707   1.498       .  S
C689        H696   1.084       .  S
C689       C1714   1.402       .  A
C690       C1713   1.402       .  A
C690        C691   1.414       .  A
C691        N698   1.439       .  S
C692        H697   1.084       .  S
C692       C1717   1.402       .  A
C693       C1716   1.402   1_455  A
C693        C694   1.416       .  A
C694        N695   1.442       .  S
N695        O699   1.263       .  A
N695        O700   1.261       .  A
N698        O701   1.262       .  A
N698        O702   1.263       .  A
C703        H710   1.083       .  S
C703       C1728   1.406       .  A
C703        C708   1.408       .  A
C704       C1727   1.406       .  A
C704        C705   1.414       .  A
C705        C706   1.402       .  A
C705        N712   1.429       .  S
C706        H711   1.083       .  S
C706       C1731   1.407       .  A
C707       C1730   1.407   1_455  A
C707        C708   1.421       .  A
C708        N709   1.434       .  S
N709        O713   1.263       .  A
N709        O714   1.262       .  A
N712        O715   1.262       .  A
N712        O716   1.262       .  A
C717        H724   1.083       .  S
C717        C718   1.404       .  A
C717        C722   1.394       .  A
C718        C719   1.420       .  A
C719        C720   1.410       .  A
C719        N726   1.430       .  S
C720        H725   1.084       .  S
C720        C721   1.405       .  A
C721        C722   1.419       .  A
C722        N723   1.434       .  S
N723        O727   1.262       .  A
N723        O728   1.262       .  A
N726        O729   1.260       .  A
N726        O730   1.262       .  A
C731        H738   1.082       .  S
C731        C732   1.413       .  A
C731        C736   1.416       .  A
C732       C1700   1.493       .  S
C732        C733   1.413       .  A
C733        C734   1.396       .  A
C733        N740   1.436       .  S
C734        H739   1.084       .  S
C734        C735   1.405       .  A
C735        C736   1.414       .  A
C736        N737   1.441       .  S
N737        O741   1.263       .  A
N737        O742   1.263       .  A
N740        O743   1.262       .  A
N740        O744   1.263       .  A
C745        H752   1.084       .  S
C745        C746   1.407       .  A
C745        C750   1.400       .  A
C746        C747   1.405       .  A
C747        C748   1.400       .  A
C747        N754   1.435       .  S
C748        H753   1.084       .  S
C748        C749   1.407       .  A
C749        C750   1.405       .  A
C750        N751   1.436       .  S
N751        O755   1.263       .  A
N751        O756   1.262       .  A
N754        O757   1.262       .  A
N754        O758   1.263       .  A
C759        H766   1.084       .  S
C759        C760   1.405       .  A
C759        C764   1.409       .  A
C760        C761   1.419       .  A
C761        C762   1.396       .  A
C761        N768   1.434       .  S
C762        H767   1.084       .  S
C762        C763   1.405       .  A
C763        C764   1.420       .  A
C764        N765   1.430       .  S
N765        O769   1.262       .  A
N765       O1794   1.260       .  A
N768        O771   1.262       .  A
N768        O772   1.262       .  A
O770       N1789   1.260       .  A
C773        H780   1.084       .  S
C773        C774   1.404       .  A
C773        C778   1.391       .  A
C774        C775   1.422       .  A
C775        C776   1.411       .  A
C775        N782   1.432       .  S
C776        H781   1.084       .  S
C776        C777   1.403       .  A
C777        C778   1.414       .  A
C778        N779   1.432       .  S
N779        O783   1.262       .  A
N779        O784   1.262       .  A
N782        O785   1.262       .  A
N782        O786   1.262       .  A
C787        H794   1.084       .  S
C787        C788   1.406       .  A
C787        C792   1.402       .  A
C788        C789   1.407       .  A
C789        C790   1.396       .  A
C789        N796   1.430       .  S
C790        H795   1.085       .  S
C790        C791   1.406       .  A
C791        C792   1.413       .  A
C792        N793   1.435       .  S
N793        O797   1.262       .  A
N793        O798   1.262       .  A
N796        O799   1.262       .  A
N796        O800   1.261       .  A
C801        H808   1.084       .  S
C801        C802   1.398       .  A
C802        C803   1.415       .  A
C803        N810   1.441       .  S
C804        H809   1.083       .  S
C804        C805   1.401       .  A
C805        C806   1.414       .  A
C806        N807   1.439       .  S
N807        O811   1.263       .  A
N807        O812   1.262       .  A
N810        O813   1.262       .  A
N810        O814   1.263       .  A
C815        H822   1.084       .  S
C815        C816   1.400       .  A
C815        C820   1.399       .  A
C816        C817   1.415       .  A
C817        C818   1.404       .  A
C817        N824   1.434       .  S
C818        H823   1.083       .  S
C818        C819   1.407       .  A
C819        C820   1.421       .  A
C820        N821   1.433       .  S
N821        O825   1.262       .  A
N821        O826   1.262       .  A
N824        O827   1.262       .  A
N824        O828   1.262       .  A
C829        H836   1.083       .  S
C829        C830   1.405       .  A
C829        C834   1.412   1_565  A
C830        C831   1.413       .  A
C831        C832   1.398   1_565  A
C831        N838   1.435       .  S
C832        H837   1.084       .  S
C832        C833   1.401       .  A
C833        C834   1.417       .  A
C834        N835   1.443       .  S
N835        O839   1.263       .  A
N835        O840   1.263       .  A
N838        O841   1.262       .  A
N838        O842   1.263       .  A
C843        H850   1.084       .  S
C843        C844   1.405       .  A
C843        C848   1.400   1_565  A
C844        C845   1.417       .  A
C845        C846   1.402   1_565  A
C845        N852   1.434       .  S
C846        H851   1.084       .  S
C846        C847   1.403       .  A
C847        C848   1.410       .  A
C848        N849   1.430       .  S
N849        O853   1.262       .  A
N849       O1878   1.262       .  A
N852        O855   1.262       .  A
N852        O856   1.263       .  A
O854       N1873   1.262   1_455  A
C857        H864   1.083       .  S
C857        C858   1.400       .  A
C858       C1883   1.417       .  A
C859       C1882   1.417       .  A
C859        N866   1.441       .  S
C860        H865   1.083       .  S
C860        C861   1.402       .  A
C861       C1886   1.415   1_455  A
C862       C1885   1.415       .  A
C862        N863   1.440       .  S
N863        O867   1.263       .  A
N863        O868   1.262       .  A
N866        O869   1.262       .  A
N866        O870   1.263       .  A
C871        H878   1.083       .  S
C871       C1896   1.405   1_455  A
C871        C876   1.402       .  A
C872       C1895   1.405       .  A
C872        C873   1.418       .  A
C873        C874   1.405       .  A
C873        N880   1.434       .  S
C874        H879   1.083       .  S
C874       C1899   1.407       .  A
C875       C1898   1.407   1_455  A
C875        C876   1.416       .  A
C876        N877   1.430       .  S
N877        O881   1.262       .  A
N877        O882   1.261       .  A
N880        O883   1.262       .  A
N880        O884   1.262       .  A
C885        H892   1.084       .  S
C885        C886   1.401       .  A
C885        C890   1.399       .  A
C886        C887   1.415       .  A
C887        C888   1.411       .  A
C887        N894   1.442       .  S
C888        H893   1.083       .  S
C888        C889   1.405       .  A
C889        C890   1.415       .  A
C890        N891   1.435       .  S
N891        O895   1.262       .  A
N891        O896   1.261       .  A
N894        O897   1.263       .  A
N894        O898   1.263       .  A
C899        H906   1.082       .  S
C899        C900   1.403       .  A
C899        C904   1.403       .  A
C900        C901   1.413       .  A
C901        C902   1.405       .  A
C901        N908   1.434       .  S
C902        H907   1.083       .  S
C902        C903   1.409       .  A
C903        C904   1.418       .  A
C904        N905   1.437       .  S
N905        O909   1.263       .  A
N905        O910   1.263       .  A
N908        O911   1.262       .  A
N908        O912   1.262       .  A
C913        H920   1.084       .  S
C913        C914   1.405       .  A
C913        C918   1.414       .  A
C914        C915   1.414       .  A
C915        C916   1.392       .  A
C915        N922   1.431       .  S
C916        H921   1.084       .  S
C916        C917   1.405       .  A
C917       C1613   1.499       .  S
C917        C918   1.423       .  A
C918       N1943   1.434       .  S
N919       C1942   1.434       .  S
N919        O923   1.262   1_655  A
N919        O924   1.263   1_655  A
N922        O925   1.262       .  A
N922        O926   1.262       .  A
C927        H934   1.085       .  S
C927        C928   1.402       .  A
C927        C932   1.401       .  A
C928        C929   1.414       .  A
C929        C930   1.402       .  A
C929        N936   1.444       .  S
C930        H935   1.084       .  S
C930        C931   1.402       .  A
C931        C932   1.413       .  A
C932        N933   1.443       .  S
N933        O937   1.263       .  A
N933        O938   1.263       .  A
N936        O939   1.263       .  A
N936        O940   1.263       .  A
C941        H948   1.085       .  S
C941        C942   1.398       .  A
C941        C946   1.386       .  A
C942        C943   1.422       .  A
C943        C944   1.419       .  A
C943        N950   1.445       .  S
C944        H949   1.083       .  S
C944        C945   1.405       .  A
C945        C946   1.406       .  A
C946        N947   1.429       .  S
N947        O951   1.262       .  A
N947        O952   1.261       .  A
N950        O953   1.262       .  A
N950        O954   1.263       .  A
C955        H962   1.084       .  S
C955        C956   1.404       .  A
C955        C960   1.393       .  A
C956        C957   1.422       .  A
C957        C958   1.410       .  A
C957        N964   1.434       .  S
C958        H963   1.084       .  S
C958        C959   1.404       .  A
C959        C960   1.417       .  A
C960        N961   1.432       .  S
N961        O965   1.262       .  A
N961        O966   1.262       .  A
N964       O1991   1.262       .  A
N964        O968   1.263       .  A
O967       N1988   1.262       .  A
C969        H976   1.084       .  S
C969        C970   1.405       .  A
C969        C974   1.391       .  A
C970        C971   1.421       .  A
C971        C972   1.412       .  A
C971        N978   1.435       .  S
C972        H977   1.084       .  S
C972        C973   1.405       .  A
C973        C974   1.414       .  A
C974        N975   1.433       .  S
N975        O979   1.262       .  A
N975        O980   1.261       .  A
N978        O981   1.263       .  A
N978        O982   1.262       .  A
C983        H990   1.084       .  S
C983        C984   1.411       .  A
C983        C988   1.398       .  A
C984        C985   1.407       .  A
C985        C986   1.399       .  A
C985        N992   1.434       .  S
C986        H991   1.084       .  S
C986        C987   1.410       .  A
C987        C988   1.407       .  A
C988        N989   1.434       .  S
N989        O993   1.262       .  A
N989        O994   1.262       .  A
N992        O995   1.262       .  A
N992        O996   1.262       .  A
C997       H1004   1.083       .  S
C997        C998   1.399       .  A
C998        C999   1.413       .  A
C999       N1006   1.439       .  S
C1000      H1005   1.083       .  S
C1000      C1001   1.400       .  A
C1001      C1002   1.418       .  A
C1002      N1003   1.441       .  S
N1003      O1007   1.263       .  A
N1003      O1008   1.262       .  A
N1006      O1009   1.262       .  A
N1006      O1010   1.263       .  A
C1011      H1018   1.083       .  S
C1011      C1012   1.407       .  A
C1011      C1016   1.405       .  A
C1012      C1013   1.419       .  A
C1013      C1014   1.406       .  A
C1013      N1020   1.436       .  S
C1014      H1019   1.083       .  S
C1014      C1015   1.405       .  A
C1015      C1016   1.417       .  A
C1016      N1017   1.437       .  S
N1017      O1021   1.263       .  A
N1017      O1022   1.263       .  A
N1020      O1023   1.263       .  A
N1020      O1024   1.263       .  A
Fe1025     O1041   2.052       .  S
Fe1025     O1031   2.067       .  S
Fe1025     O1038   2.081       .  S
Fe1025     O1030   2.049       .  S
Fe1025     O1036   1.928       .  S
Fe1026     O1029   2.021       .  S
Fe1026     O1033   2.102       .  S
Fe1026     O1037   2.059       .  S
Fe1026     O1042   2.106       .  S
Fe1026     O1036   1.947       .  S
Fe1027     O1045   2.105       .  S
Fe1027     O1032   2.038       .  S
Fe1027     O1039   2.067       .  S
Fe1027     O1028   2.096       .  S
Fe1027     O1036   1.933       .  S
O1028      C1035   1.277       .  A
O1029      C1043   1.264       .  A
O1030      C1035   1.271       .  A
O1031      C1034   1.271       .  A
O1032      C1044   1.262       .  A
O1033      C1046   1.278       .  A
C1034      O1039   1.267       .  A
C1034      C1482   1.494       .  S
C1035      C1510   1.469       .  S
O1037      C1040   1.267       .  A
O1038      C1040   1.273       .  A
C1040      C1454   1.471       .  S
O1041      C1046   1.269       .  A
O1042      C1044   1.275       .  A
C1043      O1045   1.278       .  A
C1043      C1499   1.473       .  S
C1044      C1471   1.487       .  S
C1046      C1527   1.491       .  S
Fe1047     O1063   2.057       .  S
Fe1047     O1053   2.093       .  S
Fe1047     O1060   2.099       .  S
Fe1047     O1052   2.047       .  S
Fe1047     O1058   1.931       .  S
Fe1048     O1051   2.026       .  S
Fe1048     O1055   2.097       .  S
Fe1048     O1059   2.050       .  S
Fe1048     O1064   2.115       .  S
Fe1048     O1058   1.945       .  S
Fe1049     O1067   2.101       .  S
Fe1049     O1054   2.041       .  S
Fe1049     O1061   2.054       .  S
Fe1049     O1050   2.095       .  S
Fe1049     O1058   1.933       .  S
O1050      C1057   1.276       .  A
O1051      C1065   1.263       .  A
O1052      C1057   1.269       .  A
O1053      C1056   1.275       .  A
O1054      C1066   1.264       .  A
O1055      C1068   1.275       .  A
C1056      O1061   1.266       .  A
C1056      C1412   1.483       .  S
C1057      C1513   1.470       .  S
O1059      C1062   1.270       .  A
O1060      C1062   1.278       .  A
C1062      C1398   1.478       .  S
O1063      C1068   1.268       .  A
O1064      C1066   1.276       .  A
C1065      O1067   1.276       .  A
C1065      C1443   1.462       .  S
C1066      C1426   1.488       .  S
C1068      C1524   1.494       .  S
Fe1069     O1085   2.089   1_455  S
Fe1069     O1075   2.057       .  S
Fe1069     O1082   2.058       .  S
Fe1069     O1080   1.933   1_455  S
Fe1070     O1073   2.102       .  S
Fe1070     O1077   2.051       .  S
Fe1070     O1081   2.087       .  S
Fe1070     O1086   2.027       .  S
Fe1070     O1080   1.949       .  S
Fe1071     O1089   2.043       .  S
Fe1071     O1076   2.100       .  S
Fe1071     O1083   2.091       .  S
Fe1071     O1072   2.056       .  S
Fe1071     O1080   1.941       .  S
O1073      C1087   1.273       .  A
O1074      C1079   1.274       .  A
O1075      C1078   1.271   1_455  A
O1076      C1088   1.276       .  A
O1077      C1090   1.269       .  A
C1078      O1083   1.275       .  A
C1078      C1370   1.471   1_655  S
C1079      C1468   1.494       .  S
O1081      C1084   1.271       .  A
O1082      C1084   1.269   1_455  A
C1084      C1384   1.492       .  S
O1085      C1090   1.276       .  A
O1086      C1088   1.263       .  A
C1087      O1089   1.264       .  A
C1087      C1485   1.484       .  S
C1088      C1440   1.461       .  S
C1090      C1356   1.482       .  S
Fe1091     O1107   2.096       .  S
Fe1091     O1097   2.051       .  S
Fe1091     O1104   2.057       .  S
Fe1091     O1102   1.943       .  S
Fe1092     O1095   2.089       .  S
Fe1092     O1099   2.047       .  S
Fe1092     O1103   2.096       .  S
Fe1092     O1108   2.019       .  S
Fe1092     O1102   1.945       .  S
Fe1093     O1111   2.048       .  S
Fe1093     O1098   2.099       .  S
Fe1093     O1105   2.101       .  S
Fe1093     O1094   2.069       .  S
Fe1093     O1102   1.950       .  S
O1094      C1101   1.266       .  A
O1095      C1109   1.274       .  A
O1097      C1100   1.273       .  A
O1098      C1110   1.276       .  A
O1099      C1112   1.265       .  A
C1100      O1105   1.279       .  A
C1100      C1373   1.476       .  S
O1103      C1106   1.274       .  A
O1104      C1106   1.270       .  A
C1106      C1387   1.493       .  S
O1107      C1112   1.274       .  A
O1108      C1110   1.263       .  A
C1109      O1111   1.267       .  A
C1109      C1415   1.491       .  S
C1110      C1496   1.475       .  S
C1112      C1342   1.478       .  S
Fe1113     O1129   2.080       .  S
Fe1113     O1119   2.046       .  S
Fe1113     O1126   2.043       .  S
Fe1113     O1118   2.074       .  S
Fe1113     O1124   1.934       .  S
Fe1114     O1117   2.104       .  S
Fe1114     O1121   2.064       .  S
Fe1114     O1125   2.098       .  S
Fe1114     O1130   2.024       .  S
Fe1114     O1124   1.946       .  S
Fe1115     O1133   2.039       .  S
Fe1115     O1120   2.101       .  S
Fe1115     O1127   2.092       .  S
Fe1115     O1116   2.060       .  S
Fe1115     O1124   1.940       .  S
O1116      C1123   1.266       .  A
O1117      C1131   1.276       .  A
O1118      C1123   1.272       .  A
O1119      C1122   1.270       .  A
O1120      C1132   1.276       .  A
O1121      C1134   1.268       .  A
C1122      O1127   1.276       .  A
C1122      C1314   1.463       .  S
C1123      C1286   1.494       .  S
O1125      C1128   1.278       .  A
O1126      C1128   1.267       .  A
C1128      C1328   1.478       .  S
O1129      C1134   1.271       .  A
O1130      C1132   1.264       .  A
C1131      O1133   1.262       .  A
C1131      C1272   1.491       .  S
C1132      C1303   1.475       .  S
C1134      C1457   1.473       .  S
Fe1135     O1151   2.092       .  S
Fe1135     O1141   2.043       .  S
Fe1135     O1148   2.037       .  S
Fe1135     O1140   2.077       .  S
Fe1135     O1146   1.939       .  S
Fe1136     O1139   2.111       .  S
Fe1136     O1143   2.054       .  S
Fe1136     O1147   2.094       .  S
Fe1136     O1152   2.015       .  S
Fe1136     O1146   1.951       .  S
Fe1137     O1155   2.040       .  S
Fe1137     O1142   2.109       .  S
Fe1137     O1149   2.096       .  S
Fe1137     O1138   2.067       .  S
Fe1137     O1146   1.946       .  S
O1138      C1145   1.268       .  A
O1139      C1153   1.277       .  A
O1140      C1145   1.273       .  A
O1141      C1144   1.270       .  A
O1142      C1154   1.278       .  A
O1143      C1156   1.268       .  A
C1144      O1149   1.277       .  A
C1144      C1317   1.470       .  S
C1145      C1230   1.498       .  S
O1147      C1150   1.276       .  A
O1148      C1150   1.265       .  A
C1150      C1331   1.491       .  S
O1151      C1156   1.274       .  A
O1152      C1154   1.260       .  A
C1153      O1155   1.265       .  A
C1153      C1247   1.483       .  S
C1154      C1261   1.466       .  S
C1156      C1401   1.481       .  S
Fe1157     O1170   2.088   1_455  S
Fe1157     O1162   2.056   1_455  S
Fe1157     O1168   1.936   1_455  S
Fe1158     O1161   2.013       .  S
Fe1158     O1165   2.097       .  S
Fe1158     O1169   2.051       .  S
Fe1158     O1174   2.102       .  S
Fe1158     O1168   1.954       .  S
Fe1159     O1177   2.114       .  S
Fe1159     O1164   2.036       .  S
Fe1159     O1171   2.069       .  S
Fe1159     O1160   2.094       .  S
Fe1159     O1168   1.942       .  S
O1160      C1167   1.278       .  A
O1161      C1175   1.262       .  A
O1162      C1167   1.272       .  A
O1163      C1166   1.272       .  A
O1164      C1176   1.259       .  A
O1165      C1178   1.275       .  A
C1166      C1275   1.498       .  S
C1167      C1202   1.477   1_655  S
O1169      C1172   1.268       .  A
O1170      C1172   1.274       .  A
C1172      C1359   1.479       .  S
O1174      C1176   1.272       .  A
C1175      O1177   1.281       .  A
C1175      C1258   1.467       .  S
C1176      C1289   1.483       .  S
C1178      C1216   1.494   1_655  S
Fe1179     O1195   2.060       .  S
Fe1179     O1185   2.089       .  S
Fe1179     O1192   2.088       .  S
Fe1179     O1184   2.054       .  S
Fe1179     O1190   1.936       .  S
Fe1180     O1183   2.023       .  S
Fe1180     O1187   2.095       .  S
Fe1180     O1191   2.053       .  S
Fe1180     O1196   2.111       .  S
Fe1180     O1190   1.947       .  S
Fe1181     O1199   2.101       .  S
Fe1181     O1186   2.032       .  S
Fe1181     O1193   2.058       .  S
Fe1181     O1182   2.102       .  S
Fe1181     O1190   1.939       .  S
O1182      C1189   1.278       .  A
O1183      C1197   1.262       .  A
O1184      C1189   1.271       .  A
O1185      C1188   1.273       .  A
O1186      C1198   1.261       .  A
O1187      C1200   1.275       .  A
C1188      O1193   1.266       .  A
C1189      C1205   1.473       .  S
O1191      C1194   1.268       .  A
O1192      C1194   1.273       .  A
C1194      C1345   1.476       .  S
O1195      C1200   1.273       .  A
O1196      C1198   1.277       .  A
C1197      O1199   1.277       .  A
C1197      C1300   1.473       .  S
C1198      C1233   1.491       .  S
C1200      C1219   1.498       .  S
C1201      H1208   1.084       .  S
C1201      C1718   1.405       .  A
C1202      C1203   1.414   1_455  A
C1203      C1716   1.406       .  A
C1203      N1210   1.439       .  S
C1204      H1209   1.084       .  S
C1204      C1715   1.406   1_554  A
C1205      C1206   1.416       .  A
C1206      C1713   1.405   1_554  A
C1206      N1207   1.442       .  S
N1207      O1211   1.263       .  A
N1207      O1212   1.261       .  A
N1210      O1213   1.262       .  A
N1210      O1214   1.263       .  A
C1215      H1222   1.083       .  S
C1215      C1220   1.408       .  A
C1216      C1217   1.414   1_455  A
C1217      C1218   1.402       .  A
C1217      N1224   1.429       .  S
C1218      H1223   1.083       .  S
C1219      C1220   1.421       .  A
C1220      N1221   1.434       .  S
N1221      O1225   1.263       .  A
N1221      O1226   1.262       .  A
N1224      O1227   1.262       .  A
N1224      O1228   1.262       .  A
C1229      H1236   1.083       .  S
C1229      C1230   1.404       .  A
C1229      C1234   1.394       .  A
C1230      C1231   1.420       .  A
C1231      C1232   1.410       .  A
C1231      N1238   1.430       .  S
C1232      H1237   1.084       .  S
C1232      C1233   1.405       .  A
C1233      C1234   1.419       .  A
C1234      N1235   1.434       .  S
N1235      O1239   1.262       .  A
N1235      O1240   1.262       .  A
N1238      O1241   1.260       .  A
N1238      O1242   1.262       .  A
C1243      H1250   1.082       .  S
C1243      C1244   1.413       .  A
C1243      C1248   1.416       .  A
C1244      C1245   1.413       .  A
C1245      C1246   1.396       .  A
C1245      N1252   1.436       .  S
C1246      H1251   1.084       .  S
C1246      C1247   1.405       .  A
C1247      C1248   1.414       .  A
C1248      N1249   1.441       .  S
N1249      O1253   1.263       .  A
N1249      O1254   1.263       .  A
N1252      O1255   1.262       .  A
N1252      O1256   1.263       .  A
C1257      H1264   1.084       .  S
C1257      C1258   1.407       .  A
C1257      C1262   1.400       .  A
C1258      C1259   1.405       .  A
C1259      C1260   1.400       .  A
C1259      N1266   1.435       .  S
C1260      H1265   1.084       .  S
C1260      C1261   1.407       .  A
C1261      C1262   1.405       .  A
C1262      N1263   1.436       .  S
N1263      O1267   1.263       .  A
N1263      O1268   1.262       .  A
N1266      O1269   1.262       .  A
N1266      O1270   1.263       .  A
C1271      H1278   1.084       .  S
C1271      C1272   1.405       .  A
C1271      C1276   1.409       .  A
C1272      C1273   1.419       .  A
C1273      C1274   1.396       .  A
C1273      N1280   1.434       .  S
C1274      H1279   1.084       .  S
C1274      C1275   1.405       .  A
C1275      C1276   1.420       .  A
C1276      N1277   1.430       .  S
N1277      O1281   1.262       .  A
N1280      O1283   1.262       .  A
N1280      O1284   1.262       .  A
C1285      H1292   1.084       .  S
C1285      C1286   1.404       .  A
C1285      C1290   1.391       .  A
C1286      C1287   1.422       .  A
C1287      C1288   1.411       .  A
C1287      N1294   1.432       .  S
C1288      H1293   1.084       .  S
C1288      C1289   1.403       .  A
C1289      C1290   1.414       .  A
C1290      N1291   1.432       .  S
N1291      O1295   1.262       .  A
N1291      O1296   1.262       .  A
N1294      O1297   1.262       .  A
N1294      O1298   1.262       .  A
C1299      H1306   1.084       .  S
C1299      C1300   1.406       .  A
C1299      C1304   1.402       .  A
C1300      C1301   1.407       .  A
C1301      C1302   1.396       .  A
C1301      N1308   1.430       .  S
C1302      H1307   1.085       .  S
C1302      C1303   1.406       .  A
C1303      C1304   1.413       .  A
C1304      N1305   1.435       .  S
N1305      O1309   1.262       .  A
N1305      O1310   1.262       .  A
N1308      O1311   1.262       .  A
N1308      O1312   1.261       .  A
C1313      H1320   1.084       .  S
C1313      C1314   1.398       .  A
C1313      C1830   1.399       .  A
C1314      C1315   1.415       .  A
C1315      C1828   1.406       .  A
C1315      N1322   1.441       .  S
C1316      H1321   1.083       .  S
C1316      C1827   1.406   1_554  A
C1316      C1317   1.401       .  A
C1317      C1318   1.414       .  A
C1318      C1825   1.399   1_554  A
C1318      N1319   1.439       .  S
N1319      O1323   1.263       .  A
N1319      O1324   1.262       .  A
N1322      O1325   1.262       .  A
N1322      O1326   1.263       .  A
C1327      H1334   1.084       .  S
C1327      C1328   1.400       .  A
C1327      C1332   1.399       .  A
C1328      C1329   1.415       .  A
C1329      C1330   1.404       .  A
C1329      N1336   1.434       .  S
C1330      H1335   1.083       .  S
C1330      C1331   1.407       .  A
C1331      C1332   1.421       .  A
C1332      N1333   1.433       .  S
N1333      O1337   1.262       .  A
N1333      O1338   1.262       .  A
N1336      O1339   1.262       .  A
N1336      O1340   1.262       .  A
C1341      H1348   1.083       .  S
C1341      C1342   1.405       .  A
C1341      C1346   1.412   1_565  A
C1342      C1343   1.413       .  A
C1343      C1344   1.398   1_565  A
C1343      N1350   1.435       .  S
C1344      H1349   1.084       .  S
C1344      C1345   1.401       .  A
C1345      C1346   1.417       .  A
C1346      N1347   1.443       .  S
N1347      O1351   1.263       .  A
N1347      O1352   1.263       .  A
N1350      O1353   1.262       .  A
N1350      O1354   1.263       .  A
C1355      H1362   1.084       .  S
C1355      C1356   1.405       .  A
C1355      C1360   1.400   1_565  A
C1356      C1357   1.417       .  A
C1357      C1358   1.402   1_565  A
C1357      N1364   1.434       .  S
C1358      H1363   1.084       .  S
C1358      C1359   1.403       .  A
C1359      C1360   1.410       .  A
C1360      N1361   1.430       .  S
N1361      O1365   1.262       .  A
N1364      O1367   1.262       .  A
N1364      O1368   1.263       .  A
C1369      H1376   1.083       .  S
C1369      C1370   1.400   1_655  A
C1369      C1886   1.404       .  A
C1371      C1884   1.407       .  A
C1371      N1378   1.441       .  S
C1372      H1377   1.083       .  S
C1372      C1883   1.407   1_554  A
C1372      C1373   1.402       .  A
C1374      C1881   1.404   1_554  A
C1374      N1375   1.440       .  S
N1375      O1379   1.263       .  A
N1375      O1380   1.262       .  A
N1378      O1381   1.262       .  A
N1378      O1382   1.263       .  A
C1383      H1390   1.083       .  S
C1383      C1388   1.402       .  A
C1384      C1385   1.418       .  A
C1385      C1386   1.405       .  A
C1385      N1392   1.434       .  S
C1386      H1391   1.083       .  S
C1387      C1388   1.416       .  A
C1388      N1389   1.430       .  S
N1389      O1393   1.262       .  A
N1389      O1394   1.261       .  A
N1392      O1395   1.262       .  A
N1392      O1396   1.262       .  A
C1397      H1404   1.084       .  S
C1397      C1398   1.401       .  A
C1397      C1402   1.399       .  A
C1398      C1399   1.415       .  A
C1399      C1400   1.411       .  A
C1399      N1406   1.442       .  S
C1400      H1405   1.083       .  S
C1400      C1401   1.405       .  A
C1401      C1402   1.415       .  A
C1402      N1403   1.435       .  S
N1403      O1407   1.262       .  A
N1403      O1408   1.261       .  A
N1406      O1409   1.263       .  A
N1406      O1410   1.263       .  A
C1411      H1418   1.082       .  S
C1411      C1412   1.403       .  A
C1411      C1416   1.403       .  A
C1412      C1413   1.413       .  A
C1413      C1414   1.405       .  A
C1413      N1420   1.434       .  S
C1414      H1419   1.083       .  S
C1414      C1415   1.409       .  A
C1415      C1416   1.418       .  A
C1416      N1417   1.437       .  S
N1417      O1421   1.263       .  A
N1417      O1422   1.263       .  A
N1420      O1423   1.262       .  A
N1420      O1424   1.262       .  A
C1425      H1432   1.084       .  S
C1425      C1426   1.405       .  A
C1425      C1430   1.414       .  A
C1426      C1427   1.414       .  A
C1427      C1428   1.392       .  A
C1427      N1434   1.431       .  S
C1428      H1433   1.084       .  S
C1428      C1429   1.405       .  A
C1429      C1430   1.423       .  A
N1431      O1435   1.262       .  A
N1431      O1436   1.263       .  A
N1434      O1437   1.262       .  A
N1434      O1438   1.262       .  A
C1439      H1446   1.085       .  S
C1439      C1440   1.402       .  A
C1439      C1444   1.401       .  A
C1440      C1441   1.414       .  A
C1441      C1442   1.402       .  A
C1441      N1448   1.444       .  S
C1442      H1447   1.084       .  S
C1442      C1443   1.402       .  A
C1443      C1444   1.413       .  A
C1444      N1445   1.443       .  S
N1445      O1449   1.263       .  A
N1445      O1450   1.263       .  A
N1448      O1451   1.263       .  A
N1448      O1452   1.263       .  A
C1453      H1460   1.085       .  S
C1453      C1454   1.398       .  A
C1453      C1458   1.386       .  A
C1454      C1455   1.422       .  A
C1455      C1456   1.419       .  A
C1455      N1462   1.445       .  S
C1456      H1461   1.083       .  S
C1456      C1457   1.405       .  A
C1457      C1458   1.406       .  A
C1458      N1459   1.429       .  S
N1459      O1463   1.262       .  A
N1459      O1464   1.261       .  A
N1462      O1465   1.262       .  A
N1462      O1466   1.263       .  A
C1467      H1474   1.084       .  S
C1467      C1468   1.404       .  A
C1467      C1472   1.393       .  A
C1468      C1469   1.422       .  A
C1469      C1470   1.410       .  A
C1469      N1476   1.434       .  S
C1470      H1475   1.084       .  S
C1470      C1471   1.404       .  A
C1471      C1472   1.417       .  A
C1472      N1473   1.432       .  S
N1473      O1477   1.262       .  A
N1473      O1478   1.262       .  A
N1476      O1480   1.263       .  A
C1481      H1488   1.084       .  S
C1481      C1482   1.405       .  A
C1481      C1486   1.391       .  A
C1482      C1483   1.421       .  A
C1483      C1484   1.412       .  A
C1483      N1490   1.435       .  S
C1484      H1489   1.084       .  S
C1484      C1485   1.405       .  A
C1485      C1486   1.414       .  A
C1486      N1487   1.433       .  S
N1487      O1491   1.262       .  A
N1487      O1492   1.261       .  A
N1490      O1493   1.263       .  A
N1490      O1494   1.262       .  A
C1495      H1502   1.084       .  S
C1495      C1496   1.411       .  A
C1495      C1500   1.398       .  A
C1496      C1497   1.407       .  A
C1497      C1498   1.399       .  A
C1497      N1504   1.434       .  S
C1498      H1503   1.084       .  S
C1498      C1499   1.410       .  A
C1499      C1500   1.407       .  A
C1500      N1501   1.434       .  S
N1501      O1505   1.262       .  A
N1501      O1506   1.262       .  A
N1504      O1507   1.262       .  A
N1504      O1508   1.262       .  A
C1509      H1516   1.083       .  S
C1509      C1510   1.399       .  A
C1509      C2026   1.404       .  A
C1510      C1511   1.413       .  A
C1511      C2024   1.403       .  A
C1511      N1518   1.439       .  S
C1512      H1517   1.083       .  S
C1512      C2023   1.403   1_554  A
C1512      C1513   1.400       .  A
C1513      C1514   1.418       .  A
C1514      C2021   1.404   1_554  A
C1514      N1515   1.441       .  S
N1515      O1519   1.263       .  A
N1515      O1520   1.262       .  A
N1518      O1521   1.262       .  A
N1518      O1522   1.263       .  A
C1523      H1530   1.083       .  S
C1523      C1524   1.407       .  A
C1523      C1528   1.405       .  A
C1524      C1525   1.419       .  A
C1525      C1526   1.406       .  A
C1525      N1532   1.436       .  S
C1526      H1531   1.083       .  S
C1526      C1527   1.405       .  A
C1527      C1528   1.417       .  A
C1528      N1529   1.437       .  S
N1529      O1533   1.263       .  A
N1529      O1534   1.263       .  A
N1532      O1535   1.263       .  A
N1532      O1536   1.263       .  A
Fe1537     O1553   2.052       .  S
Fe1537     O1543   2.067       .  S
Fe1537     O1550   2.081       .  S
Fe1537     O1542   2.049       .  S
Fe1537     O1548   1.928       .  S
Fe1538     O1541   2.021       .  S
Fe1538     O1545   2.102       .  S
Fe1538     O1549   2.059       .  S
Fe1538     O1554   2.106       .  S
Fe1538     O1548   1.947       .  S
Fe1539     O1557   2.105       .  S
Fe1539     O1544   2.038       .  S
Fe1539     O1551   2.067       .  S
Fe1539     O1540   2.096       .  S
Fe1539     O1548   1.933       .  S
O1540      C1547   1.277       .  A
O1541      C1555   1.264       .  A
O1542      C1547   1.271       .  A
O1543      C1546   1.271       .  A
O1544      C1556   1.262       .  A
O1545      C1558   1.278       .  A
C1546      O1551   1.267       .  A
C1546      C1994   1.494       .  S
C1547      C2022   1.469       .  S
O1549      C1552   1.267       .  A
O1550      C1552   1.273       .  A
C1552      C1966   1.471       .  S
O1553      C1558   1.269       .  A
O1554      C1556   1.275       .  A
C1555      O1557   1.278       .  A
C1555      C2011   1.473       .  S
C1556      C1983   1.487       .  S
C1558      C2039   1.491       .  S
Fe1559     O1575   2.057       .  S
Fe1559     O1565   2.093       .  S
Fe1559     O1572   2.099       .  S
Fe1559     O1564   2.047       .  S
Fe1559     O1570   1.931       .  S
Fe1560     O1563   2.026       .  S
Fe1560     O1567   2.097       .  S
Fe1560     O1571   2.050       .  S
Fe1560     O1576   2.115       .  S
Fe1560     O1570   1.945       .  S
Fe1561     O1579   2.101       .  S
Fe1561     O1566   2.041       .  S
Fe1561     O1573   2.054       .  S
Fe1561     O1562   2.095       .  S
Fe1561     O1570   1.933       .  S
O1562      C1569   1.276       .  A
O1563      C1577   1.263       .  A
O1564      C1569   1.269       .  A
O1565      C1568   1.275       .  A
O1566      C1578   1.264       .  A
O1567      C1580   1.275       .  A
C1568      O1573   1.266       .  A
C1568      C1924   1.483       .  S
C1569      C2025   1.470       .  S
O1571      C1574   1.270       .  A
O1572      C1574   1.278       .  A
C1574      C1910   1.478       .  S
O1575      C1580   1.268       .  A
O1576      C1578   1.276       .  A
C1577      O1579   1.276       .  A
C1577      C1955   1.462       .  S
C1578      C1938   1.488       .  S
C1580      C2036   1.494       .  S
Fe1581     O1597   2.089   1_455  S
Fe1581     O1587   2.057       .  S
Fe1581     O1594   2.058       .  S
Fe1581     O1592   1.933   1_455  S
Fe1582     O1585   2.102       .  S
Fe1582     O1589   2.051       .  S
Fe1582     O1593   2.087       .  S
Fe1582     O1598   2.027       .  S
Fe1582     O1592   1.949       .  S
Fe1583     O1601   2.043       .  S
Fe1583     O1588   2.100       .  S
Fe1583     O1595   2.091       .  S
Fe1583     O1584   2.056       .  S
Fe1583     O1592   1.941       .  S
O1585      C1599   1.273       .  A
O1586      C1591   1.274       .  A
O1587      C1590   1.271   1_455  A
O1588      C1600   1.276       .  A
O1589      C1602   1.269       .  A
C1590      O1595   1.275       .  A
C1590      C1882   1.471   1_655  S
C1591      C1980   1.494       .  S
O1593      C1596   1.271       .  A
O1594      C1596   1.269   1_455  A
C1596      C1896   1.492       .  S
O1597      C1602   1.276       .  A
O1598      C1600   1.263       .  A
C1599      O1601   1.264       .  A
C1599      C1997   1.484       .  S
C1600      C1952   1.461       .  S
C1602      C1868   1.482       .  S
Fe1603     O1619   2.096       .  S
Fe1603     O1609   2.051       .  S
Fe1603     O1616   2.057       .  S
Fe1603     O1614   1.943       .  S
Fe1604     O1607   2.089       .  S
Fe1604     O1611   2.047       .  S
Fe1604     O1615   2.096       .  S
Fe1604     O1620   2.019       .  S
Fe1604     O1614   1.945       .  S
Fe1605     O1623   2.048       .  S
Fe1605     O1610   2.099       .  S
Fe1605     O1617   2.101       .  S
Fe1605     O1606   2.069       .  S
Fe1605     O1614   1.950       .  S
O1606      C1613   1.266       .  A
O1607      C1621   1.274       .  A
O1609      C1612   1.273       .  A
O1610      C1622   1.276       .  A
O1611      C1624   1.265       .  A
C1612      O1617   1.279       .  A
C1612      C1885   1.476       .  S
O1615      C1618   1.274       .  A
O1616      C1618   1.270       .  A
C1618      C1899   1.493       .  S
O1619      C1624   1.274       .  A
O1620      C1622   1.263       .  A
C1621      O1623   1.267       .  A
C1621      C1927   1.491       .  S
C1622      C2008   1.475       .  S
C1624      C1854   1.478       .  S
Fe1625     O1641   2.080       .  S
Fe1625     O1631   2.046       .  S
Fe1625     O1638   2.043       .  S
Fe1625     O1630   2.074       .  S
Fe1625     O1636   1.934       .  S
Fe1626     O1629   2.104       .  S
Fe1626     O1633   2.064       .  S
Fe1626     O1637   2.098       .  S
Fe1626     O1642   2.024       .  S
Fe1626     O1636   1.946       .  S
Fe1627     O1645   2.039       .  S
Fe1627     O1632   2.101       .  S
Fe1627     O1639   2.092       .  S
Fe1627     O1628   2.060       .  S
Fe1627     O1636   1.940       .  S
O1628      C1635   1.266       .  A
O1629      C1643   1.276       .  A
O1630      C1635   1.272       .  A
O1631      C1634   1.270       .  A
O1632      C1644   1.276       .  A
O1633      C1646   1.268       .  A
C1634      O1639   1.276       .  A
C1634      C1826   1.463       .  S
C1635      C1798   1.494       .  S
O1637      C1640   1.278       .  A
O1638      C1640   1.267       .  A
C1640      C1840   1.478       .  S
O1641      C1646   1.271       .  A
O1642      C1644   1.264       .  A
C1643      O1645   1.262       .  A
C1643      C1784   1.491       .  S
C1644      C1815   1.475       .  S
C1646      C1969   1.473       .  S
Fe1647     O1663   2.092       .  S
Fe1647     O1653   2.043       .  S
Fe1647     O1660   2.037       .  S
Fe1647     O1652   2.077       .  S
Fe1647     O1658   1.939       .  S
Fe1648     O1651   2.111       .  S
Fe1648     O1655   2.054       .  S
Fe1648     O1659   2.094       .  S
Fe1648     O1664   2.015       .  S
Fe1648     O1658   1.951       .  S
Fe1649     O1667   2.040       .  S
Fe1649     O1654   2.109       .  S
Fe1649     O1661   2.096       .  S
Fe1649     O1650   2.067       .  S
Fe1649     O1658   1.946       .  S
O1650      C1657   1.268       .  A
O1651      C1665   1.277       .  A
O1652      C1657   1.273       .  A
O1653      C1656   1.270       .  A
O1654      C1666   1.278       .  A
O1655      C1668   1.268       .  A
C1656      O1661   1.277       .  A
C1656      C1829   1.470       .  S
C1657      C1742   1.498       .  S
O1659      C1662   1.276       .  A
O1660      C1662   1.265       .  A
C1662      C1843   1.491       .  S
O1663      C1668   1.274       .  A
O1664      C1666   1.260       .  A
C1665      O1667   1.265       .  A
C1665      C1759   1.483       .  S
C1666      C1773   1.466       .  S
C1668      C1913   1.481       .  S
Fe1669     O1682   2.088   1_455  S
Fe1669     O1674   2.056   1_455  S
Fe1669     O1680   1.936   1_455  S
Fe1670     O1673   2.013       .  S
Fe1670     O1677   2.097       .  S
Fe1670     O1681   2.051       .  S
Fe1670     O1686   2.102       .  S
Fe1670     O1680   1.954       .  S
Fe1671     O1689   2.114       .  S
Fe1671     O1676   2.036       .  S
Fe1671     O1683   2.069       .  S
Fe1671     O1672   2.094       .  S
Fe1671     O1680   1.942       .  S
O1672      C1679   1.278       .  A
O1673      C1687   1.262       .  A
O1674      C1679   1.272       .  A
O1675      C1678   1.272       .  A
O1676      C1688   1.259       .  A
O1677      C1690   1.275       .  A
C1678      C1787   1.498       .  S
C1679      C1714   1.477   1_655  S
O1681      C1684   1.268       .  A
O1682      C1684   1.274       .  A
C1684      C1871   1.479       .  S
O1686      C1688   1.272       .  A
C1687      O1689   1.281       .  A
C1687      C1770   1.467       .  S
C1688      C1801   1.483       .  S
C1690      C1728   1.494   1_655  S
Fe1691     O1707   2.060       .  S
Fe1691     O1697   2.089       .  S
Fe1691     O1704   2.088       .  S
Fe1691     O1696   2.054       .  S
Fe1691     O1702   1.936       .  S
Fe1692     O1695   2.023       .  S
Fe1692     O1699   2.095       .  S
Fe1692     O1703   2.053       .  S
Fe1692     O1708   2.111       .  S
Fe1692     O1702   1.947       .  S
Fe1693     O1711   2.101       .  S
Fe1693     O1698   2.032       .  S
Fe1693     O1705   2.058       .  S
Fe1693     O1694   2.102       .  S
Fe1693     O1702   1.939       .  S
O1694      C1701   1.278       .  A
O1695      C1709   1.262       .  A
O1696      C1701   1.271       .  A
O1697      C1700   1.273       .  A
O1698      C1710   1.261       .  A
O1699      C1712   1.275       .  A
C1700      O1705   1.266       .  A
C1701      C1717   1.473       .  S
O1703      C1706   1.268       .  A
O1704      C1706   1.273       .  A
C1706      C1857   1.476       .  S
O1707      C1712   1.273       .  A
O1708      C1710   1.277       .  A
C1709      O1711   1.277       .  A
C1709      C1812   1.473       .  S
C1710      C1745   1.491       .  S
C1712      C1731   1.498       .  S
C1713      H1720   1.084       .  S
C1714      C1715   1.414   1_455  A
C1715      N1722   1.439       .  S
C1716      H1721   1.084       .  S
C1717      C1718   1.416       .  A
C1718      N1719   1.442       .  S
N1719      O1723   1.263       .  A
N1719      O1724   1.261       .  A
N1722      O1725   1.262       .  A
N1722      O1726   1.263       .  A
C1727      H1734   1.083       .  S
C1727      C1732   1.408       .  A
C1728      C1729   1.414   1_455  A
C1729      C1730   1.402       .  A
C1729      N1736   1.429       .  S
C1730      H1735   1.083       .  S
C1731      C1732   1.421       .  A
C1732      N1733   1.434       .  S
N1733      O1737   1.263       .  A
N1733      O1738   1.262       .  A
N1736      O1739   1.262       .  A
N1736      O1740   1.262       .  A
C1741      H1748   1.083       .  S
C1741      C1742   1.404       .  A
C1741      C1746   1.394       .  A
C1742      C1743   1.420       .  A
C1743      C1744   1.410       .  A
C1743      N1750   1.430       .  S
C1744      H1749   1.084       .  S
C1744      C1745   1.405       .  A
C1745      C1746   1.419       .  A
C1746      N1747   1.434       .  S
N1747      O1751   1.262       .  A
N1747      O1752   1.262       .  A
N1750      O1753   1.260       .  A
N1750      O1754   1.262       .  A
C1755      H1762   1.082       .  S
C1755      C1756   1.413       .  A
C1755      C1760   1.416       .  A
C1756      C1757   1.413       .  A
C1757      C1758   1.396       .  A
C1757      N1764   1.436       .  S
C1758      H1763   1.084       .  S
C1758      C1759   1.405       .  A
C1759      C1760   1.414       .  A
C1760      N1761   1.441       .  S
N1761      O1765   1.263       .  A
N1761      O1766   1.263       .  A
N1764      O1767   1.262       .  A
N1764      O1768   1.263       .  A
C1769      H1776   1.084       .  S
C1769      C1770   1.407       .  A
C1769      C1774   1.400       .  A
C1770      C1771   1.405       .  A
C1771      C1772   1.400       .  A
C1771      N1778   1.435       .  S
C1772      H1777   1.084       .  S
C1772      C1773   1.407       .  A
C1773      C1774   1.405       .  A
C1774      N1775   1.436       .  S
N1775      O1779   1.263       .  A
N1775      O1780   1.262       .  A
N1778      O1781   1.262       .  A
N1778      O1782   1.263       .  A
C1783      H1790   1.084       .  S
C1783      C1784   1.405       .  A
C1783      C1788   1.409       .  A
C1784      C1785   1.419       .  A
C1785      C1786   1.396       .  A
C1785      N1792   1.434       .  S
C1786      H1791   1.084       .  S
C1786      C1787   1.405       .  A
C1787      C1788   1.420       .  A
C1788      N1789   1.430       .  S
N1789      O1793   1.262       .  A
N1792      O1795   1.262       .  A
N1792      O1796   1.262       .  A
C1797      H1804   1.084       .  S
C1797      C1798   1.404       .  A
C1797      C1802   1.391       .  A
C1798      C1799   1.422       .  A
C1799      C1800   1.411       .  A
C1799      N1806   1.432       .  S
C1800      H1805   1.084       .  S
C1800      C1801   1.403       .  A
C1801      C1802   1.414       .  A
C1802      N1803   1.432       .  S
N1803      O1807   1.262       .  A
N1803      O1808   1.262       .  A
N1806      O1809   1.262       .  A
N1806      O1810   1.262       .  A
C1811      H1818   1.084       .  S
C1811      C1812   1.406       .  A
C1811      C1816   1.402       .  A
C1812      C1813   1.407       .  A
C1813      C1814   1.396       .  A
C1813      N1820   1.430       .  S
C1814      H1819   1.085       .  S
C1814      C1815   1.406       .  A
C1815      C1816   1.413       .  A
C1816      N1817   1.435       .  S
N1817      O1821   1.262       .  A
N1817      O1822   1.262       .  A
N1820      O1823   1.262       .  A
N1820      O1824   1.261       .  A
C1825      H1832   1.084       .  S
C1825      C1826   1.398       .  A
C1826      C1827   1.415       .  A
C1827      N1834   1.441       .  S
C1828      H1833   1.083       .  S
C1828      C1829   1.401       .  A
C1829      C1830   1.414       .  A
C1830      N1831   1.439       .  S
N1831      O1835   1.263       .  A
N1831      O1836   1.262       .  A
N1834      O1837   1.262       .  A
N1834      O1838   1.263       .  A
C1839      H1846   1.084       .  S
C1839      C1840   1.400       .  A
C1839      C1844   1.399       .  A
C1840      C1841   1.415       .  A
C1841      C1842   1.404       .  A
C1841      N1848   1.434       .  S
C1842      H1847   1.083       .  S
C1842      C1843   1.407       .  A
C1843      C1844   1.421       .  A
C1844      N1845   1.433       .  S
N1845      O1849   1.262       .  A
N1845      O1850   1.262       .  A
N1848      O1851   1.262       .  A
N1848      O1852   1.262       .  A
C1853      H1860   1.083       .  S
C1853      C1854   1.405       .  A
C1853      C1858   1.412   1_565  A
C1854      C1855   1.413       .  A
C1855      C1856   1.398   1_565  A
C1855      N1862   1.435       .  S
C1856      H1861   1.084       .  S
C1856      C1857   1.401       .  A
C1857      C1858   1.417       .  A
C1858      N1859   1.443       .  S
N1859      O1863   1.263       .  A
N1859      O1864   1.263       .  A
N1862      O1865   1.262       .  A
N1862      O1866   1.263       .  A
C1867      H1874   1.084       .  S
C1867      C1868   1.405       .  A
C1867      C1872   1.400   1_565  A
C1868      C1869   1.417       .  A
C1869      C1870   1.402   1_565  A
C1869      N1876   1.434       .  S
C1870      H1875   1.084       .  S
C1870      C1871   1.403       .  A
C1871      C1872   1.410       .  A
C1872      N1873   1.430       .  S
N1873      O1877   1.262       .  A
N1876      O1879   1.262       .  A
N1876      O1880   1.263       .  A
C1881      H1888   1.083       .  S
C1881      C1882   1.400   1_655  A
C1883      N1890   1.441       .  S
C1884      H1889   1.083       .  S
C1884      C1885   1.402       .  A
C1886      N1887   1.440       .  S
N1887      O1891   1.263       .  A
N1887      O1892   1.262       .  A
N1890      O1893   1.262       .  A
N1890      O1894   1.263       .  A
C1895      H1902   1.083       .  S
C1895      C1900   1.402       .  A
C1896      C1897   1.418       .  A
C1897      C1898   1.405       .  A
C1897      N1904   1.434       .  S
C1898      H1903   1.083       .  S
C1899      C1900   1.416       .  A
C1900      N1901   1.430       .  S
N1901      O1905   1.262       .  A
N1901      O1906   1.261       .  A
N1904      O1907   1.262       .  A
N1904      O1908   1.262       .  A
C1909      H1916   1.084       .  S
C1909      C1910   1.401       .  A
C1909      C1914   1.399       .  A
C1910      C1911   1.415       .  A
C1911      C1912   1.411       .  A
C1911      N1918   1.442       .  S
C1912      H1917   1.083       .  S
C1912      C1913   1.405       .  A
C1913      C1914   1.415       .  A
C1914      N1915   1.435       .  S
N1915      O1919   1.262       .  A
N1915      O1920   1.261       .  A
N1918      O1921   1.263       .  A
N1918      O1922   1.263       .  A
C1923      H1930   1.082       .  S
C1923      C1924   1.403       .  A
C1923      C1928   1.403       .  A
C1924      C1925   1.413       .  A
C1925      C1926   1.405       .  A
C1925      N1932   1.434       .  S
C1926      H1931   1.083       .  S
C1926      C1927   1.409       .  A
C1927      C1928   1.418       .  A
C1928      N1929   1.437       .  S
N1929      O1933   1.263       .  A
N1929      O1934   1.263       .  A
N1932      O1935   1.262       .  A
N1932      O1936   1.262       .  A
C1937      H1944   1.084       .  S
C1937      C1938   1.405       .  A
C1937      C1942   1.414       .  A
C1938      C1939   1.414       .  A
C1939      C1940   1.392       .  A
C1939      N1946   1.431       .  S
C1940      H1945   1.084       .  S
C1940      C1941   1.405       .  A
C1941      C1942   1.423       .  A
N1943      O1947   1.262       .  A
N1943      O1948   1.263       .  A
N1946      O1949   1.262       .  A
N1946      O1950   1.262       .  A
C1951      H1958   1.085       .  S
C1951      C1952   1.402       .  A
C1951      C1956   1.401       .  A
C1952      C1953   1.414       .  A
C1953      C1954   1.402       .  A
C1953      N1960   1.444       .  S
C1954      H1959   1.084       .  S
C1954      C1955   1.402       .  A
C1955      C1956   1.413       .  A
C1956      N1957   1.443       .  S
N1957      O1961   1.263       .  A
N1957      O1962   1.263       .  A
N1960      O1963   1.263       .  A
N1960      O1964   1.263       .  A
C1965      H1972   1.085       .  S
C1965      C1966   1.398       .  A
C1965      C1970   1.386       .  A
C1966      C1967   1.422       .  A
C1967      C1968   1.419       .  A
C1967      N1974   1.445       .  S
C1968      H1973   1.083       .  S
C1968      C1969   1.405       .  A
C1969      C1970   1.406       .  A
C1970      N1971   1.429       .  S
N1971      O1975   1.262       .  A
N1971      O1976   1.261       .  A
N1974      O1977   1.262       .  A
N1974      O1978   1.263       .  A
C1979      H1986   1.084       .  S
C1979      C1980   1.404       .  A
C1979      C1984   1.393       .  A
C1980      C1981   1.422       .  A
C1981      C1982   1.410       .  A
C1981      N1988   1.434       .  S
C1982      H1987   1.084       .  S
C1982      C1983   1.404       .  A
C1983      C1984   1.417       .  A
C1984      N1985   1.432       .  S
N1985      O1989   1.262       .  A
N1985      O1990   1.262       .  A
N1988      O1992   1.263       .  A
C1993      H2000   1.084       .  S
C1993      C1994   1.405       .  A
C1993      C1998   1.391       .  A
C1994      C1995   1.421       .  A
C1995      C1996   1.412       .  A
C1995      N2002   1.435       .  S
C1996      H2001   1.084       .  S
C1996      C1997   1.405       .  A
C1997      C1998   1.414       .  A
C1998      N1999   1.433       .  S
N1999      O2003   1.262       .  A
N1999      O2004   1.261       .  A
N2002      O2005   1.263       .  A
N2002      O2006   1.262       .  A
C2007      H2014   1.084       .  S
C2007      C2008   1.411       .  A
C2007      C2012   1.398       .  A
C2008      C2009   1.407       .  A
C2009      C2010   1.399       .  A
C2009      N2016   1.434       .  S
C2010      H2015   1.084       .  S
C2010      C2011   1.410       .  A
C2011      C2012   1.407       .  A
C2012      N2013   1.434       .  S
N2013      O2017   1.262       .  A
N2013      O2018   1.262       .  A
N2016      O2019   1.262       .  A
N2016      O2020   1.262       .  A
C2021      H2028   1.083       .  S
C2021      C2022   1.399       .  A
C2022      C2023   1.413       .  A
C2023      N2030   1.439       .  S
C2024      H2029   1.083       .  S
C2024      C2025   1.400       .  A
C2025      C2026   1.418       .  A
C2026      N2027   1.441       .  S
N2027      O2031   1.263       .  A
N2027      O2032   1.262       .  A
N2030      O2033   1.262       .  A
N2030      O2034   1.263       .  A
C2035      H2042   1.083       .  S
C2035      C2036   1.407       .  A
C2035      C2040   1.405       .  A
C2036      C2037   1.419       .  A
C2037      C2038   1.406       .  A
C2037      N2044   1.436       .  S
C2038      H2043   1.083       .  S
C2038      C2039   1.405       .  A
C2039      C2040   1.417       .  A
C2040      N2041   1.437       .  S
N2041      O2045   1.263       .  A
N2041      O2046   1.263       .  A
N2044      O2047   1.263       .  A
N2044      O2048   1.263       .  A
