geometry optimzed in LAMMPS
_audit_creation_date              2020-12-01 
_audit_creation_method            'lammps2cif' 
_symmetry_space_group_name_H-M    'P1' 
_symmetry_Int_Tables_number       1 
_symmetry_cell_setting            triclinic 
loop_ 
_symmetry_equiv_pos_as_xyz 
  x,y,z 
_cell_length_a                    28.22547839 
_cell_length_b                    44.24342444743273 
_cell_length_c                    28.811805782715922 
_cell_angle_alpha                 90.28390746922851 
_cell_angle_beta                  89.91344982524615 
_cell_angle_gamma                 89.95240116938434 
loop_ 
_atom_site_label 
_atom_site_type_symbol 
_atom_site_fract_x 
_atom_site_fract_y 
_atom_site_fract_z 
_atom_site_charge 
O1          O  0.89886946  0.64589434  0.92009812    -0.85700
O2          O  0.91487739  0.70154843  0.95866676    -0.82700
C3          C  0.90798582  0.72778600  0.97421726     0.97800
O4          O  0.86673602  0.73571704  0.98583425    -0.82800
O5          O  0.81812262  0.73420315  0.90174686    -0.85400
C6          C  0.79532108  0.72371405  0.86757119     1.02300
O7          O  0.77371744  0.69868193  0.87115270    -0.78200
O8          O  0.84772460  0.65964878  0.86671062    -0.78300
C9          C  0.88834694  0.65025305  0.87779888     1.02300
O10         O  0.84029913  0.63096656  0.99953387    -0.85700
O11         O  0.85906414  0.68573710  0.04031057    -0.82700
C12         C  0.82017577  0.69642520  0.05570208     0.97800
O13         O  0.78897471  0.70618994  0.02828766    -0.82800
O14         O  0.73634334  0.71258023  0.94919738    -0.85400
C15         C  0.71255140  0.68859045  0.95296279     1.02300
O16         O  0.73231928  0.66333767  0.94598764    -0.78200
O17         O  0.80449113  0.62081048  0.93400127    -0.78300
C18         C  0.81906087  0.61255840  0.97343521     1.02200
Cr19       Cr  0.87434479  0.66718677  0.97753913     1.93700
Cr20       Cr  0.80419550  0.71937397  0.96502001     1.93200
Cr21       Cr  0.79177167  0.66196629  0.90787454     1.39100
O22         O  0.82368471  0.68256186  0.95024889    -1.23400
O23         O  0.90086769  0.35674166  0.10196192    -0.85700
O24         O  0.91938413  0.30217941  0.06133111    -0.82700
C25         C  0.91323756  0.27587633  0.04573032     0.97800
O26         O  0.87197694  0.26703049  0.03567617    -0.82800
O27         O  0.81789966  0.26758526  0.11681928    -0.85400
C28         C  0.79193975  0.27720568  0.14939865     1.02300
O29         O  0.77336122  0.30320739  0.14667685    -0.78200
O30         O  0.85153094  0.33952436  0.15452755    -0.78300
C31         C  0.89160868  0.35008755  0.14388529     1.02300
O32         O  0.84241165  0.37190115  0.02235505    -0.85700
O33         O  0.86581655  0.31818442  0.97971422    -0.82700
C34         C  0.82811036  0.30676090  0.96328204     0.97800
O35         O  0.79630320  0.29684621  0.98973729    -0.82800
O36         O  0.73982091  0.29203597  0.06491884    -0.85400
C37         C  0.71858524  0.31703321  0.06039518     1.02300
O38         O  0.73829352  0.34128513  0.07328719    -0.78200
O39         O  0.81175519  0.38172748  0.09022759    -0.78300
C40         C  0.82394198  0.39043901  0.05021405     1.02200
Cr41       Cr  0.87819287  0.33612775  0.04335446     1.93700
Cr42       Cr  0.80822893  0.28352029  0.05334206     1.93200
Cr43       Cr  0.79596711  0.34006784  0.11296248     1.39100
O44         O  0.82774922  0.31993689  0.06977965    -1.23400
O45         O  0.42182910  0.16862521  0.92863882    -0.85700
O46         O  0.41097126  0.20783142  0.00254849    -0.82700
C47         C  0.40900797  0.23294119  0.98190058     0.97800
O48         O  0.37368840  0.23921856  0.95697320    -0.82800
O49         O  0.29030221  0.23135331  0.90705701    -0.85400
C50         C  0.30131614  0.22122376  0.86742726     1.02300
O51         O  0.31902744  0.19512941  0.86354664    -0.78200
O52         O  0.36904253  0.14417716  0.88697567    -0.78300
C53         C  0.41103463  0.15380737  0.89255017     1.02300
O54         O  0.36542947  0.12478888  0.97524908    -0.85700
O55         O  0.34501337  0.16701774  0.04429123    -0.82700
C56         C  0.32867699  0.19115790  0.06177312     0.97800
O57         O  0.32711891  0.21505769  0.03785557    -0.82800
O58         O  0.24973205  0.20263546  0.98598336    -0.85400
C59         C  0.22356976  0.18976831  0.95675052     1.02300
O60         O  0.24084238  0.17721993  0.92092377    -0.78200
O61         O  0.29284432  0.12763561  0.95017676    -0.78300
C62         C  0.32526905  0.11280765  0.96981125     1.02200
Cr63       Cr  0.38223796  0.16811864  0.98542565     1.93700
Cr64       Cr  0.31203302  0.21939977  0.97052607     1.93200
Cr65       Cr  0.30741921  0.16250053  0.90896235     1.39100
O66         O  0.33374496  0.18336645  0.95469524    -1.23400
O67         O  0.39797640  0.86021881  0.10413789    -0.85700
O68         O  0.41435018  0.80488438  0.06565413    -0.82700
C69         C  0.40801050  0.77799247  0.05289147     0.97800
O70         O  0.36673814  0.76917696  0.04309424    -0.82800
O71         O  0.32094935  0.77112254  0.12862041    -0.85400
C72         C  0.29798344  0.78120081  0.16295473     1.02300
O73         O  0.27694906  0.80653189  0.16076737    -0.78200
O74         O  0.34971773  0.84630882  0.16008733    -0.78300
C75         C  0.38970192  0.85571509  0.14690804     1.02300
O76         O  0.33439508  0.87361653  0.02746765    -0.85700
O77         O  0.35317319  0.81919231  0.98659550    -0.82700
C78         C  0.31374612  0.80786436  0.97394905     0.97800
O79         O  0.28567192  0.79701617  0.00343417    -0.82800
O80         O  0.23710311  0.79118410  0.08432929    -0.85400
C81         C  0.21198422  0.81467148  0.08092839     1.02300
O82         O  0.23073680  0.84031063  0.08705949    -0.78200
O83         O  0.30146389  0.88419030  0.09436057    -0.78300
C84         C  0.31376383  0.89208427  0.05397503     1.02200
Cr85       Cr  0.37118490  0.83827302  0.04830616     1.93700
Cr86       Cr  0.30433283  0.78503290  0.06588868     1.93200
Cr87       Cr  0.29189595  0.84300087  0.12206338     1.39100
O88         O  0.32272802  0.82235001  0.07867959    -1.23400
O89         O  0.14933194  0.35856540  0.42196084    -0.85700
O90         O  0.12963327  0.30448430  0.46214388    -0.82700
C91         C  0.13468940  0.27822124  0.47767023     0.97800
O92         O  0.17565354  0.26783647  0.48574924    -0.82800
O93         O  0.22738323  0.26604447  0.40300110    -0.85400
C94         C  0.25279555  0.27484344  0.36965434     1.02300
O95         O  0.27058654  0.30116717  0.37066663    -0.78200
O96         O  0.19409349  0.33942470  0.36687802    -0.78300
C97         C  0.15603407  0.35202938  0.37939718     1.02300
O98         O  0.21311365  0.37118398  0.49916469    -0.85700
O99         O  0.18742661  0.31862488  0.54184976    -0.82700
C100        C  0.22572940  0.30715443  0.55666113     0.97800
O101        O  0.25560522  0.29631930  0.52874337    -0.82800
O102        O  0.30841625  0.28963687  0.45055816    -0.85400
C103        C  0.33139969  0.31419271  0.45108933     1.02300
O104        O  0.31129653  0.33888485  0.44182931    -0.78200
O105        O  0.23938367  0.38072224  0.42972363    -0.78300
C106        C  0.23109331  0.38936675  0.47087423     1.02200
Cr107      Cr  0.17354034  0.33698168  0.47905012     1.93700
Cr108      Cr  0.24000300  0.28264556  0.46571174     1.93200
Cr109      Cr  0.25163102  0.33870643  0.40552476     1.39100
O110        O  0.22135897  0.31934768  0.45001191    -1.23400
O111        O  0.14737471  0.64094308  0.60116278    -0.85700
O112        O  0.13040948  0.69587141  0.56275225    -0.82700
C113        C  0.13624486  0.72233500  0.54836067     0.97800
O114        O  0.17755551  0.73234342  0.54181940    -0.82800
O115        O  0.22288237  0.73083738  0.62823182    -0.85400
C116        C  0.24554241  0.72068880  0.66258656     1.02300
O117        O  0.26700727  0.69557447  0.65929452    -0.78200
O118        O  0.19347532  0.65592434  0.65802429    -0.78300
C119        C  0.15432512  0.64549675  0.64421305     1.02300
O120        O  0.21207853  0.62817375  0.52512781    -0.85700
O121        O  0.19223036  0.68234016  0.48504601    -0.82700
C122        C  0.23120650  0.69413201  0.47246911     0.97800
O123        O  0.25944415  0.70508139  0.50191337    -0.82800
O124        O  0.30766247  0.71087263  0.58341888    -0.85400
C125        C  0.33229471  0.68710061  0.58032533     1.02300
O126        O  0.31313489  0.66158278  0.58587380    -0.78200
O127        O  0.24266399  0.61791843  0.59297096    -0.78300
C128        C  0.23153863  0.60991053  0.55231718     1.02200
Cr129      Cr  0.17431605  0.66307963  0.54598256     1.93700
Cr130      Cr  0.24018831  0.71696358  0.56493500     1.93200
Cr131      Cr  0.25195626  0.65911816  0.62059758     1.39100
O132        O  0.22188315  0.67955320  0.57704670    -1.23400
O133        O  0.63003283  0.16172270  0.58972280    -0.85700
O134        O  0.63579074  0.20348281  0.52101245    -0.82700
C135        C  0.63589097  0.22800936  0.54396256     0.97800
O136        O  0.67186975  0.23567090  0.56720601    -0.82800
O137        O  0.75785473  0.22986464  0.61458272    -0.85400
C138        C  0.74753591  0.21900686  0.65380717     1.02300
O139        O  0.73010396  0.19296121  0.65631793    -0.78200
O140        O  0.68497908  0.14080552  0.63268436    -0.78300
C141        C  0.64228398  0.14906144  0.62695119     1.02300
O142        O  0.69158468  0.12163075  0.53976274    -0.85700
O143        O  0.70640849  0.16668201  0.47452184    -0.82700
C144        C  0.71922858  0.19192820  0.45856756     0.97800
O145        O  0.71755895  0.21523345  0.48405886    -0.82800
O146        O  0.79731598  0.20339796  0.53274045    -0.85400
C147        C  0.82501443  0.19037311  0.56034473     1.02300
O148        O  0.80960155  0.17807194  0.59707354    -0.78200
O149        O  0.76231636  0.12706894  0.56919073    -0.78300
C150        C  0.73211695  0.11095967  0.54872001     1.02200
Cr151      Cr  0.66947636  0.16448259  0.53339802     1.93700
Cr152      Cr  0.73459696  0.21830047  0.55101583     1.93200
Cr153      Cr  0.74457277  0.16119707  0.61028324     1.39100
O154        O  0.71620011  0.18124588  0.56516882    -1.23400
O155        O  0.63048099  0.83946923  0.42974293    -0.85700
O156        O  0.63619340  0.79825710  0.50058345    -0.82700
C157        C  0.63706690  0.77313273  0.47943528     0.97800
O158        O  0.67296990  0.76532117  0.45616996    -0.82800
O159        O  0.75689154  0.77123905  0.40655522    -0.85400
C160        C  0.74595880  0.78198616  0.36743616     1.02300
O161        O  0.73168076  0.80886259  0.36418253    -0.78200
O162        O  0.68627342  0.86102164  0.38797332    -0.78300
C163        C  0.64323986  0.85342379  0.39364044     1.02300
O164        O  0.69081801  0.87967450  0.47925883    -0.85700
O165        O  0.70615976  0.83582306  0.54567892    -0.82700
C166        C  0.72104928  0.81115155  0.56202685     0.97800
O167        O  0.72003793  0.78736345  0.53760231    -0.82800
O168        O  0.79878142  0.79810110  0.48721785    -0.86200
C169        C  0.82672129  0.81073855  0.45942550     1.02300
O170        O  0.81110931  0.82362723  0.42332784    -0.78200
O171        O  0.76291285  0.87458353  0.45313313    -0.78300
C172        C  0.73204648  0.89011661  0.47412933     1.02200
Cr173      Cr  0.66947555  0.83704647  0.48660705     1.93700
Cr174      Cr  0.73564055  0.78334224  0.47040143     1.93200
Cr175      Cr  0.74580277  0.84055437  0.41073262     1.39100
O176        O  0.71683956  0.82024425  0.45547699    -1.23400
C177        C  0.74243731  0.92138648  0.49065969    -0.20200
C178        C  0.71213950  0.93614327  0.52291613     0.36000
C179        C  0.71824586  0.96705836  0.53206377    -0.26200
C180        C  0.75451270  0.98348420  0.51083430     0.02500
C181        C  0.78719362  0.96853244  0.48173120     0.27300
C182        C  0.78092065  0.93751928  0.47193735    -0.25300
N183        N  0.67478650  0.91987653  0.54583433    -0.82700
H184        H  0.69376775  0.97870563  0.55502715     0.13100
C185        C  0.75414647  0.01677324  0.51627119     0.02400
N186        N  0.82576529  0.98504765  0.46142935    -0.81200
H187        H  0.80488628  0.92631581  0.44800648     0.17900
C188        C  0.78227228  0.03065154  0.55021972    -0.26100
C189        C  0.77687076  0.06161131  0.56083693     0.35900
C190        C  0.74285044  0.07897031  0.53643262    -0.20100
C191        C  0.71621626  0.06501739  0.50116916    -0.25400
C192        C  0.72151684  0.03416042  0.49090898     0.27300
H193        H  0.80696669  0.01698716  0.56982387     0.13100
N194        N  0.80435381  0.07500396  0.59752535    -0.82600
H195        H  0.69043654  0.07812744  0.48201772     0.17900
N196        N  0.69276595  0.02004838  0.45581690    -0.81200
H197        H  0.82821967  0.05930481  0.61115644     0.33500
H198        H  0.78102883  0.08063146  0.62445542     0.38000
H199        H  0.66994729  0.03581522  0.44075023     0.33500
H200        H  0.71540695  0.01248447  0.42945056     0.30200
H201        H  0.84683369  0.97070515  0.44112021     0.33500
H202        H  0.81134227  0.00107419  0.43895995     0.30200
H203        H  0.69067763  0.90371486  0.56712727     0.38100
H204        H  0.65539734  0.93419323  0.56773587     0.33600
C205        C  0.59583696  0.75300327  0.48459052    -0.20200
C206        C  0.60017927  0.72343141  0.50235134     0.36000
C207        C  0.55901221  0.70766215  0.51587214    -0.26200
C208        C  0.51419561  0.72117606  0.51210791     0.02500
C209        C  0.50987288  0.74984830  0.49142392     0.27300
C210        C  0.55075209  0.76554707  0.47819723    -0.25300
N211        N  0.64624454  0.71029219  0.50904542    -0.82700
H212        H  0.56202632  0.68560462  0.53177471     0.13100
C213        C  0.47236436  0.70744065  0.53482588     0.02400
N214        N  0.46390321  0.76338007  0.48583364    -0.81200
H215        H  0.54759788  0.78822017  0.46441761     0.17900
C216        C  0.45323281  0.72239281  0.57351219    -0.26100
C217        C  0.40888603  0.71429874  0.59138087     0.35900
C218        C  0.38333632  0.69046436  0.57041642    -0.20100
C219        C  0.40431366  0.67367004  0.53434151    -0.25400
C220        C  0.44859921  0.68224935  0.51582995     0.27300
H221        H  0.47198897  0.74152733  0.58826345     0.13100
N222        N  0.38864244  0.73102142  0.62951365    -0.82600
H223        H  0.38454469  0.65544976  0.51824464     0.17900
N224        N  0.46831831  0.66654166  0.47653768    -0.81200
H225        H  0.41167304  0.74809669  0.64056969     0.33500
H226        H  0.38483721  0.71613207  0.65732523     0.38000
H227        H  0.44636568  0.64860882  0.46668978     0.33500
H228        H  0.46886614  0.68158678  0.44866700     0.30200
H229        H  0.46682899  0.78469505  0.47057996     0.33500
H230        H  0.44479440  0.74986445  0.46262433     0.30200
H231        H  0.66380780  0.72314097  0.53424680     0.38100
H232        H  0.64316703  0.68844328  0.52238714     0.33600
C233        C  0.09429737  0.74035789  0.53507429    -0.20200
C234        C  0.09310547  0.77221402  0.53860954     0.36000
C235        C  0.05243790  0.78791167  0.52378944    -0.26200
C236        C  0.01356953  0.77231268  0.50518465     0.02500
C237        C  0.01492963  0.74059967  0.50130047     0.27300
C238        C  0.05519617  0.72496546  0.51634384    -0.25300
N239        N  0.13265705  0.78838771  0.55785881    -0.82700
H240        H  0.05072986  0.81229056  0.52716583     0.13100
C241        C  0.96972864  0.78874501  0.49315164     0.02400
N242        N  0.97516804  0.72442376  0.48233800    -0.81200
H243        H  0.05624536  0.70056722  0.51293150     0.17900
C244        C  0.95714290  0.79216435  0.44636981    -0.26100
C245        C  0.91151767  0.80213152  0.43389982     0.35900
C246        C  0.87804389  0.80834349  0.46918177    -0.20100
C247        C  0.89222902  0.80715192  0.51588524    -0.25400
C248        C  0.93755434  0.79711026  0.52825813     0.27300
H249        H  0.98222560  0.78560137  0.41964123     0.13100
N250        N  0.89817986  0.80379230  0.38585889    -0.82600
H251        H  0.86683727  0.81240392  0.54298539     0.17900
N252        N  0.95020768  0.79383535  0.57631622    -0.81200
H253        H  0.92628818  0.79701559  0.36452993     0.33500
H254        H  0.89183842  0.82652863  0.37831058     0.38000
H255        H  0.92261900  0.80124067  0.59780833     0.33500
H256        H  0.95454600  0.77076512  0.58283283     0.30200
H257        H  0.98209160  0.70120793  0.48126008     0.33500
H258        H  0.94655102  0.72744211  0.50497519     0.30200
H259        H  0.13579165  0.78204057  0.59261945     0.38100
H260        H  0.12610776  0.81165291  0.55780370     0.33600
C261        C  0.38213803  0.31287029  0.46168059    -0.20200
C262        C  0.41160730  0.29348391  0.43569515     0.36000
C263        C  0.45594637  0.28546165  0.45348241    -0.26200
C264        C  0.47079713  0.29603612  0.49705414     0.02500
C265        C  0.44307242  0.31742455  0.52129353     0.27300
C266        C  0.39896303  0.32608968  0.50281286    -0.25300
N267        N  0.39517891  0.28084640  0.39253828    -0.82700
H268        H  0.47779146  0.26931218  0.43478558     0.13100
C269        C  0.51172977  0.28077160  0.51865933     0.02400
N270        N  0.45852706  0.32887581  0.56549515    -0.81200
H271        H  0.37609572  0.34117413  0.52233638     0.17900
C272        C  0.55551870  0.29551174  0.52256439    -0.26100
C273        C  0.59683893  0.27915289  0.53379525     0.35900
C274        C  0.59366920  0.24763385  0.54099469    -0.20100
C275        C  0.54920560  0.23356187  0.53988284    -0.25400
C276        C  0.50814298  0.24988690  0.52963985     0.27300
H277        H  0.55785649  0.31931544  0.51421642     0.13100
N278        N  0.64206522  0.29402612  0.53510010    -0.82600
H279        H  0.54671828  0.20941678  0.54532896     0.17900
N280        N  0.46286936  0.23500398  0.52819578    -0.81200
H281        H  0.63807465  0.31719396  0.52922812     0.33500
H282        H  0.66237433  0.28553600  0.50758949     0.38000
H283        H  0.46634931  0.21216092  0.53669490     0.33500
H284        H  0.44158564  0.24480106  0.55393203     0.30200
H285        H  0.43392471  0.34438016  0.57872129     0.33500
H286        H  0.45928400  0.31075984  0.58864326     0.30200
H287        H  0.39046173  0.29870812  0.36936138     0.38100
H288        H  0.42091139  0.26665674  0.37797184     0.33600
C289        C  0.87612387  0.19208950  0.55079416    -0.20200
C290        C  0.89325389  0.18995505  0.50482543     0.36000
C291        C  0.93978328  0.19904157  0.49503058    -0.26200
C292        C  0.96902012  0.21032466  0.53027720     0.02500
C293        C  0.95320627  0.21014399  0.57673529     0.27300
C294        C  0.90682713  0.20070168  0.58666631    -0.25300
N295        N  0.86258601  0.17982553  0.46810132    -0.82700
H296        H  0.95226846  0.19918919  0.45944149     0.13100
C297        C  0.01252955  0.22671611  0.51719321     0.02400
N298        N  0.98355439  0.22109652  0.61312580    -0.81200
H299        H  0.89354399  0.20225606  0.62191626     0.17900
C300        C  0.01328647  0.25805928  0.52381536    -0.26100
C301        C  0.05259408  0.27525265  0.51060653     0.35900
C302        C  0.09215106  0.26067917  0.49019405    -0.20100
C303        C  0.09144434  0.22921023  0.48360487    -0.25400
C304        C  0.05155811  0.21207113  0.49644335     0.27300
H305        H  0.98280164  0.26915922  0.53926215     0.13100
N306        N  0.05278543  0.30737350  0.51871149    -0.82600
H307        H  0.12180570  0.21809583  0.46800534     0.17900
N308        N  0.05036070  0.18000101  0.48846089    -0.81200
H309        H  0.02063871  0.31448660  0.53320997     0.33500
H310        H  0.07892544  0.31195647  0.54342639     0.38000
H311        H  0.08175382  0.17275611  0.47261336     0.33500
H312        H  0.04878791  0.16947324  0.52082314     0.30200
H313        H  0.96638067  0.21989857  0.64525231     0.33500
H314        H  0.01272792  0.20658025  0.61488715     0.30200
H315        H  0.85371833  0.15732481  0.47482784     0.38100
H316        H  0.88039315  0.17997322  0.43625478     0.33600
C317        C  0.23967363  0.42137023  0.48481419    -0.20200
C318        C  0.22618524  0.43272918  0.52909102     0.36000
C319        C  0.22908262  0.46390233  0.53801762    -0.26200
C320        C  0.24618943  0.48382230  0.50444359     0.02500
C321        C  0.26227520  0.47261073  0.46148501     0.27300
C322        C  0.25887684  0.44148900  0.45205186    -0.25300
N323        N  0.20863361  0.41288795  0.56456512    -0.82700
H324        H  0.21724202  0.47287049  0.57114228     0.13100
C325        C  0.24388415  0.51659133  0.51390967     0.02400
N326        N  0.28145133  0.49293067  0.42751068    -0.81200
H327        H  0.27011193  0.43310139  0.41840868     0.17900
C328        C  0.28256692  0.53126825  0.53450226    -0.26100
C329        C  0.27994410  0.56210309  0.54650005     0.35900
C330        C  0.23786180  0.57824597  0.53749081    -0.20100
C331        C  0.19969677  0.56360333  0.51584915    -0.25400
C332        C  0.20212671  0.53281498  0.50434335     0.27300
H333        H  0.31449915  0.51852570  0.54170732     0.13100
N334        N  0.31968203  0.57709359  0.56757402    -0.82600
H335        H  0.16729215  0.57602820  0.50930150     0.17900
N336        N  0.16193360  0.51767217  0.48430818    -0.81200
H337        H  0.34784734  0.56199974  0.57184487     0.33500
H338        H  0.33138363  0.59369392  0.54452955     0.38000
H339        H  0.13359726  0.53269088  0.48044720     0.33500
H340        H  0.17143372  0.51059816  0.45091124     0.30200
H341        H  0.29229231  0.48102522  0.39790986     0.33500
H342        H  0.25425096  0.50740270  0.41701963     0.30200
H343        H  0.23677683  0.39905891  0.57478410     0.38100
H344        H  0.19846579  0.42513547  0.59407535     0.33600
C345        C  0.42754883  0.85993604  0.18238639    -0.20200
C346        C  0.46490964  0.88094719  0.17741963     0.36000
C347        C  0.50092667  0.88233010  0.21142819    -0.26200
C348        C  0.50034645  0.86315149  0.25024497     0.02500
C349        C  0.46298416  0.84219703  0.25502680     0.27300
C350        C  0.42693089  0.84109167  0.22152869    -0.25300
N351        N  0.46586516  0.90101565  0.13836461    -0.82700
H352        H  0.52936801  0.89858769  0.20789498     0.13100
C353        C  0.53868203  0.86479640  0.28594809     0.02400
N354        N  0.46230568  0.82162365  0.29352846    -0.81200
H355        H  0.39880120  0.82462423  0.22535154     0.17900
C356        C  0.52626829  0.86929989  0.33273028    -0.26100
C357        C  0.56009461  0.86696367  0.36837909     0.35900
C358        C  0.60769968  0.86034236  0.35709770    -0.20100
C359        C  0.62079787  0.85798775  0.31011060    -0.25400
C360        C  0.58672105  0.85969785  0.27444827     0.27300
H361        H  0.48960413  0.87385391  0.34153488     0.13100
N362        N  0.54619085  0.87106648  0.41601888    -0.82600
H363        H  0.65736385  0.85316921  0.30130351     0.17900
N364        N  0.60044021  0.85506721  0.22686806    -0.81200
H365        H  0.50990153  0.87558331  0.41844191     0.33500
H366        H  0.56369116  0.89023982  0.42861904     0.38000
H367        H  0.63701680  0.85162867  0.22430486     0.33500
H368        H  0.58435492  0.83513492  0.21531303     0.30200
H369        H  0.43235318  0.80776010  0.29218502     0.33500
H370        H  0.49173811  0.80740077  0.29022932     0.30200
H371        H  0.43630729  0.91519708  0.14099021     0.38100
H372        H  0.49570630  0.91497192  0.13979685     0.33600
C373        C  0.25020155  0.73815893  0.70649773    -0.20200
C374        C  0.24127771  0.76961992  0.70970354     0.36000
C375        C  0.25199091  0.78507284  0.75124623    -0.26200
C376        C  0.27062456  0.76965243  0.78942052     0.02500
C377        C  0.27740426  0.73818939  0.78711710     0.27300
C378        C  0.26726388  0.72282820  0.74576252    -0.25300
N379        N  0.22244783  0.78590596  0.67083583    -0.82700
H380        H  0.24582261  0.80919305  0.75397303     0.13100
C381        C  0.28065990  0.78600534  0.83298938     0.02400
N382        N  0.29382038  0.72190434  0.82712341    -0.81200
H383        H  0.27319975  0.69864543  0.74419020     0.17900
C384        C  0.24412839  0.78921017  0.86536347    -0.26100
C385        C  0.25358183  0.79909342  0.91067985     0.35900
C386        C  0.30104800  0.80486030  0.92418885    -0.20100
C387        C  0.33690143  0.80436129  0.89030412    -0.25400
C388        C  0.32704426  0.79502637  0.84456980     0.27300
H389        H  0.20839072  0.78284905  0.85567409     0.13100
N390        N  0.21529882  0.80253477  0.94330095    -0.82600
H391        H  0.37305393  0.80955959  0.90004142     0.17900
N392        N  0.36395400  0.79408162  0.81013474    -0.81200
H393        H  0.18288282  0.79697669  0.92797133     0.33500
H394        H  0.21338348  0.82544251  0.95214044     0.38000
H395        H  0.39585389  0.80190258  0.82411564     0.33500
H396        H  0.36954951  0.77152626  0.80072269     0.30200
H397        H  0.29563142  0.69872623  0.82003266     0.33500
H398        H  0.32842336  0.72888805  0.83418943     0.30200
H399        H  0.18759777  0.77857859  0.66596604     0.38100
H400        H  0.22035548  0.80900962  0.67838882     0.33600
C401        C  0.29330992  0.76326127  0.20561824    -0.20200
C402        C  0.28357927  0.73191876  0.20447174     0.36000
C403        C  0.27440203  0.71673532  0.24631029    -0.26200
C404        C  0.27522782  0.73230455  0.28872180     0.02500
C405        C  0.28558497  0.76341722  0.28991103     0.27300
C406        C  0.29453072  0.77859394  0.24829485    -0.25300
N407        N  0.28057191  0.71601647  0.16094057    -0.82700
H408        H  0.26598899  0.69284239  0.24591482     0.13100
C409        C  0.26334877  0.71645830  0.33203943     0.02400
N410        N  0.28631968  0.77948615  0.33342293    -0.81200
H411        H  0.30185717  0.80264167  0.24904615     0.17900
C412        C  0.30001455  0.70804316  0.36195318    -0.26100
C413        C  0.29011371  0.69827310  0.40719422     0.35900
C414        C  0.24257679  0.69751157  0.42272892    -0.20100
C415        C  0.20581282  0.70354180  0.39134935    -0.25400
C416        C  0.21581051  0.71327625  0.34606814     0.27300
H417        H  0.33644285  0.71028820  0.35053066     0.13100
N418        N  0.32807984  0.68987016  0.43779042    -0.82600
H419        H  0.16934883  0.70263688  0.40307803     0.17900
N420        N  0.17806896  0.72117279  0.31491974    -0.81200
H421        H  0.36084248  0.69190416  0.42110262     0.33500
H422        H  0.32387543  0.66697341  0.44564987     0.38000
H423        H  0.14515241  0.71733327  0.33049079     0.33500
H424        H  0.18013728  0.74440784  0.30879438     0.30200
H425        H  0.29506743  0.80218944  0.32830313     0.33500
H426        H  0.25193651  0.77922699  0.34697364     0.30200
H427        H  0.31473036  0.71490692  0.14700341     0.38100
H428        H  0.26995841  0.69365237  0.16620490     0.33600
C429        C  0.31772818  0.08084550  0.98457895    -0.20200
C430        C  0.35237479  0.06512353  0.01078860     0.36000
C431        C  0.34616034  0.03429946  0.02013287    -0.26200
C432        C  0.30599440  0.01865257  0.00489065     0.02500
C433        C  0.27020440  0.03436424  0.98091383     0.27300
C434        C  0.27640193  0.06531844  0.97097910    -0.25300
N435        N  0.39398441  0.08029673  0.02778907    -0.82700
H436        H  0.37311106  0.02219073  0.03933250     0.13100
C437        C  0.30378093  0.98553536  0.01307709     0.02400
N438        N  0.22831780  0.01869998  0.96590447    -0.81200
H439        H  0.24938015  0.07710821  0.95147061     0.17900
C440        C  0.26964984  0.97349222  0.04323736    -0.26100
C441        C  0.27085566  0.94273889  0.05599378     0.35900
C442        C  0.30713634  0.92380726  0.03830343    -0.20100
C443        C  0.33973583  0.93574881  0.00636672    -0.25400
C444        C  0.33848078  0.96632061  0.99367886     0.27300
H445        H  0.24291178  0.98832750  0.05788713     0.13100
N446        N  0.23564608  0.93078144  0.08694346    -0.82600
H447        H  0.36747078  0.92140462  0.99236810     0.17900
N448        N  0.37304296  0.97820719  0.96191785    -0.81200
H449        H  0.21173266  0.94767300  0.09692922     0.33500
H450        H  0.21614442  0.91464998  0.06845912     0.38000
H451        H  0.39649596  0.96126056  0.95113077     0.33500
H452        H  0.35497857  0.98538988  0.93229820     0.30200
H453        H  0.20533925  0.03349122  0.94885738     0.33500
H454        H  0.23866966  0.00243043  0.94148046     0.30200
H455        H  0.38290863  0.09605820  0.05270247     0.38100
H456        H  0.41643793  0.06521293  0.04490124     0.33600
C457        C  0.31274837  0.19287722  0.11068489    -0.20200
C458        C  0.27500157  0.21238225  0.12303505     0.36000
C459        C  0.26606436  0.21857682  0.16983667    -0.26200
C460        C  0.29383012  0.20580567  0.20469242     0.02500
C461        C  0.32928740  0.18460615  0.19302646     0.27300
C462        C  0.33809717  0.17799114  0.14579858    -0.25300
N463        N  0.24651469  0.22644331  0.08788916    -0.82700
H464        H  0.23873802  0.23473563  0.17923868     0.13100
C465        C  0.28978676  0.21946181  0.25137470     0.02400
N466        N  0.35694917  0.17069605  0.22890781    -0.81200
H467        H  0.36671550  0.16280733  0.13638910     0.17900
C468        C  0.25596932  0.20877381  0.28294708    -0.26100
C469        C  0.24341655  0.22591042  0.32255984     0.35900
C470        C  0.26514121  0.25441076  0.33017522    -0.20100
C471        C  0.30069391  0.26402260  0.29929680    -0.25400
C472        C  0.31308517  0.24695459  0.26014409     0.27300
H473        H  0.23772454  0.18777905  0.27541915     0.13100
N474        N  0.20802132  0.21476873  0.35403490    -0.82600
H475        H  0.31851884  0.28538043  0.30504421     0.17900
N476        N  0.34744221  0.25822728  0.22761341    -0.81200
H477        H  0.19695531  0.19313088  0.34409541     0.33500
H478        H  0.17836799  0.22880038  0.35121891     0.38000
H479        H  0.36042919  0.27924804  0.23836633     0.33500
H480        H  0.37625493  0.24338017  0.22762832     0.30200
H481        H  0.38137143  0.15553771  0.21447106     0.33500
H482        H  0.37667156  0.18762264  0.24531515     0.30200
H483        H  0.22693414  0.20930380  0.07192442     0.38100
H484        H  0.22180571  0.24123775  0.10275280     0.33600
C485        C  0.29096027  0.23920755  0.82493738    -0.20200
C486        C  0.26922832  0.26820154  0.82661722     0.36000
C487        C  0.25670317  0.28269517  0.78493412    -0.26200
C488        C  0.26622538  0.26921682  0.74186923     0.02500
C489        C  0.28843984  0.24073867  0.74001542     0.27300
C490        C  0.30067368  0.22612757  0.78136640    -0.25300
N491        N  0.25973600  0.28286908  0.87029899    -0.82700
H492        H  0.23995511  0.30473949  0.78592463     0.13100
C493        C  0.25393411  0.28496594  0.69827895     0.02400
N494        N  0.29808206  0.22664842  0.69590204    -0.81200
H495        H  0.31722250  0.20406497  0.77934848     0.17900
C496        C  0.29084478  0.29469345  0.66952311    -0.26100
C497        C  0.28194021  0.30422696  0.62403250     0.35900
C498        C  0.23498870  0.30407387  0.60698515    -0.20100
C499        C  0.19758396  0.29683227  0.63715994    -0.25400
C500        C  0.20669360  0.28687826  0.68266585     0.27300
H501        H  0.32700411  0.29345124  0.68199658     0.13100
N502        N  0.32055038  0.31317346  0.59455057    -0.82600
H503        H  0.16156286  0.29680235  0.62419599     0.17900
N504        N  0.16852142  0.27728904  0.71219639    -0.81200
H505        H  0.35285184  0.31156957  0.61210409     0.33500
H506        H  0.31570285  0.33600472  0.58667554     0.38000
H507        H  0.13596283  0.28011151  0.69549231     0.33500
H508        H  0.17251507  0.25409675  0.71782379     0.30200
H509        H  0.31493240  0.20582249  0.70040804     0.33500
H510        H  0.26554154  0.22210264  0.68003919     0.30200
H511        H  0.29240330  0.28826163  0.88525930     0.38100
H512        H  0.24209940  0.30338672  0.86525038     0.33600
C513        C  0.44762272  0.14813355  0.85628399    -0.20200
C514        C  0.44632906  0.12253333  0.82650994     0.36000
C515        C  0.48036748  0.11954973  0.79095910    -0.26200
C516        C  0.51505195  0.14169443  0.78420692     0.02500
C517        C  0.51741600  0.16667642  0.81455908     0.27300
C518        C  0.48394874  0.16953930  0.85048066    -0.25300
N519        N  0.41095799  0.09951795  0.83254238    -0.82700
H520        H  0.47886126  0.10043422  0.76734539     0.13100
C521        C  0.54572418  0.14035429  0.74252785     0.02400
N522        N  0.55293874  0.18951580  0.80772334    -0.81200
H523        H  0.48528003  0.18917595  0.87307681     0.17900
C524        C  0.53264892  0.15738273  0.70388591    -0.26100
C525        C  0.56267656  0.15993549  0.66522574     0.35900
C526        C  0.60685760  0.14454326  0.66483568    -0.20100
C527        C  0.61874047  0.12631516  0.70308853    -0.25400
C528        C  0.58867456  0.12419785  0.74201896     0.27300
H529        H  0.49948631  0.16975456  0.70475347     0.13100
N530        N  0.54904465  0.17917437  0.62748111    -0.82600
H531        H  0.65217387  0.11427878  0.70322849     0.17900
N532        N  0.60181608  0.10610133  0.78124082    -0.81200
H533        H  0.51460882  0.18739131  0.63221565     0.33500
H534        H  0.57127566  0.19805413  0.62842390     0.38000
H535        H  0.63434161  0.09543138  0.77524312     0.33500
H536        H  0.60678954  0.12065734  0.80949904     0.30200
H537        H  0.54950778  0.20669038  0.83256012     0.33500
H538        H  0.58601356  0.17949527  0.81317705     0.30200
H539        H  0.37871128  0.10836960  0.82111592     0.38100
H540        H  0.41806095  0.08098758  0.81095465     0.33600
C541        C  0.95512817  0.25645890  0.03577627    -0.20200
C542        C  0.95148358  0.22887303  0.01083784     0.36000
C543        C  0.99271493  0.21339221  0.99723442    -0.26200
C544        C  0.03750372  0.22489266  0.00804873     0.02500
C545        C  0.04155909  0.25185288  0.03385075     0.27300
C546        C  0.00041642  0.26728988  0.04760145    -0.25300
N547        N  0.90624063  0.21681386  0.99806668    -0.82700
H548        H  0.98978026  0.19261479  0.97736645     0.13100
C549        C  0.08046420  0.20954594  0.99063461     0.02400
N550        N  0.08757755  0.26396174  0.04450690    -0.81200
H551        H  0.00395146  0.28834968  0.06661336     0.17900
C552        C  0.09894973  0.21878045  0.94777544    -0.26100
C553        C  0.14476680  0.21021068  0.93388428     0.35900
C554        C  0.17218448  0.19204079  0.96354932    -0.20100
C555        C  0.15260164  0.18128242  0.00502608    -0.25400
C556        C  0.10686573  0.18965677  0.01888271     0.27300
H557        H  0.07865792  0.23422235  0.92650229     0.13100
N558        N  0.16509692  0.22202844  0.89193238    -0.82600
H559        H  0.17393523  0.16748227  0.02793185     0.17900
N560        N  0.08924862  0.17851706  0.06241892    -0.81200
H561        H  0.14094512  0.23611689  0.87504707     0.33500
H562        H  0.17142958  0.20378451  0.86958384     0.38000
H563        H  0.11024348  0.18772663  0.08878234     0.33500
H564        H  0.05450217  0.18552917  0.06870236     0.30200
H565        H  0.08447358  0.28440675  0.06262042     0.33500
H566        H  0.10440071  0.24885583  0.06687825     0.30200
H567        H  0.90337844  0.19512884  0.01204323     0.38100
H568        H  0.90515217  0.21486049  0.96189637     0.33600
C569        C  0.44780209  0.25478471  0.98994621    -0.20200
C570        C  0.46429268  0.27475550  0.95542377     0.36000
C571        C  0.50552770  0.29189760  0.96389794    -0.26200
C572        C  0.53017620  0.28924865  0.00600998     0.02500
C573        C  0.51245444  0.27027280  0.04106451     0.27300
C574        C  0.47126453  0.25356817  0.03284477    -0.25300
N575        N  0.44052847  0.27660693  0.91144599    -0.82700
H576        H  0.51968621  0.30634520  0.93698608     0.13100
C577        C  0.57780132  0.30273314  0.01150956     0.02400
N578        N  0.53760578  0.26702214  0.08417111    -0.81200
H579        H  0.45833493  0.23857677  0.05966880     0.17900
C580        C  0.58564213  0.32426423  0.04668030    -0.26100
C581        C  0.63192921  0.33150857  0.06113864     0.35900
C582        C  0.67059199  0.31654379  0.04020774    -0.20100
C583        C  0.66269279  0.29701502  0.00244195    -0.25400
C584        C  0.61668560  0.28986758  0.98791457     0.27300
H585        H  0.55550408  0.33397488  0.06471846     0.13100
N586        N  0.63951173  0.35206840  0.09915271    -0.82600
H587        H  0.69259006  0.28592861  0.98590723     0.17900
N588        N  0.60927432  0.26819061  0.95125071    -0.81200
H589        H  0.60713790  0.36004120  0.11198277     0.33500
H590        H  0.65738668  0.37087913  0.08605057     0.38000
H591        H  0.64164280  0.26116057  0.93719111     0.33500
H592        H  0.59360811  0.24902177  0.96581160     0.30200
H593        H  0.51958839  0.25239523  0.10645432     0.33500
H594        H  0.57020493  0.25680127  0.07680946     0.30200
H595        H  0.44426801  0.25567608  0.89482286     0.38100
H596        H  0.45705363  0.29252292  0.89016743     0.33600
C597        C  0.92830869  0.35465560  0.18048776    -0.20200
C598        C  0.92837375  0.33760541  0.22203833     0.36000
C599        C  0.96591469  0.34096786  0.25367919    -0.26200
C600        C  0.00304020  0.36137392  0.24570870     0.02500
C601        C  0.00272650  0.37875296  0.20472409     0.27300
C602        C  0.96568353  0.37501862  0.17246374    -0.25300
N603        N  0.89154160  0.31599293  0.23131487    -0.82700
H604        H  0.96660023  0.32716812  0.28463720     0.13100
C605        C  0.04284341  0.36297118  0.27976380     0.02400
N606        N  0.04001950  0.40010177  0.19599675    -0.81200
H607        H  0.96600254  0.38816654  0.14084150     0.17900
C608        C  0.08944709  0.35813095  0.26443176    -0.26100
C609        C  0.12742952  0.35636102  0.29589970     0.35900
C610        C  0.11851743  0.35849302  0.34426792    -0.20100
C611        C  0.07209078  0.36476083  0.35935041    -0.25400
C612        C  0.03435311  0.36725318  0.32767421     0.27300
H613        H  0.09610987  0.35489246  0.22770128     0.13100
N614        N  0.17482605  0.35199759  0.27873896    -0.82600
H615        H  0.06482535  0.36688105  0.39615100     0.17900
N616        N  0.98723436  0.37366722  0.34401337    -0.81200
H617        H  0.17504235  0.35032745  0.24252607     0.33500
H618        H  0.19422353  0.37138782  0.28715704     0.38000
H619        H  0.98682688  0.37601513  0.38013647     0.33500
H620        H  0.97718356  0.39457308  0.33040866     0.30200
H621        H  0.03474980  0.41094474  0.16425101     0.33500
H622        H  0.03809762  0.41680508  0.22171763     0.30200
H623        H  0.86070309  0.32813262  0.23898737     0.38100
H624        H  0.89927722  0.30351344  0.26109385     0.33600
C625        C  0.78175031  0.25808589  0.19042489    -0.20200
C626        C  0.74125875  0.26340527  0.21841908     0.36000
C627        C  0.73540187  0.24712069  0.25960430    -0.26200
C628        C  0.76812351  0.22507100  0.27287323     0.02500
C629        C  0.80664290  0.21802936  0.24360846     0.27300
C630        C  0.81323200  0.23475733  0.20261690    -0.25300
N631        N  0.70617565  0.28529927  0.20507748    -0.82700
H632        H  0.70547729  0.25198819  0.28207298     0.13100
C633        C  0.76267498  0.21177881  0.31948203     0.02400
N634        N  0.83833091  0.19375698  0.25520700    -0.81200
H635        H  0.84364344  0.23005107  0.18075573     0.17900
C636        C  0.72842607  0.18930194  0.32683248    -0.26100
C637        C  0.71506162  0.18087772  0.37212504     0.35900
C638        C  0.73636358  0.19551111  0.41039352    -0.20100
C639        C  0.77217522  0.21695125  0.40266600    -0.25400
C640        C  0.78524425  0.22545698  0.35769985     0.27300
H641        H  0.71052226  0.17942913  0.29717641     0.13100
N642        N  0.67780463  0.15926656  0.37920484    -0.82600
H643        H  0.78870478  0.22811009  0.43204496     0.17900
N644        N  0.81858078  0.24961518  0.35075136    -0.81200
H645        H  0.66413134  0.15197135  0.34735480     0.33500
H646        H  0.69287872  0.14025021  0.39470077     0.38000
H647        H  0.83011454  0.25830444  0.38260045     0.33500
H648        H  0.84851690  0.24062182  0.33443707     0.30200
H649        H  0.86422703  0.19115589  0.22950953     0.33500
H650        H  0.85617196  0.19955339  0.28568541     0.30200
H651        H  0.69045033  0.27755624  0.17440181     0.38100
H652        H  0.67912011  0.28666364  0.22983595     0.33600
C653        C  0.75886050  0.23615390  0.69690817    -0.20200
C654        C  0.73782235  0.22904307  0.74014274     0.36000
C655        C  0.75157255  0.24505640  0.78002845    -0.26200
C656        C  0.78564741  0.26807871  0.77811733     0.02500
C657        C  0.80657148  0.27538618  0.73521687     0.27300
C658        C  0.79293368  0.25939284  0.69505805    -0.25300
N659        N  0.70211011  0.20597715  0.74362657    -0.82700
H660        H  0.73598767  0.23924231  0.81320675     0.13100
C661        C  0.79877096  0.28374909  0.82196870     0.02400
N662        N  0.84136536  0.29902537  0.73261041    -0.81200
H663        H  0.80953222  0.26487619  0.66223393     0.17900
C664        C  0.84579368  0.28277607  0.83791272    -0.26100
C665        C  0.85734295  0.29225279  0.88327806     0.35900
C666        C  0.82100513  0.30295845  0.91283164    -0.20100
C667        C  0.77477939  0.30590184  0.89556148    -0.25400
C668        C  0.76336534  0.29664099  0.85039540     0.27300
H669        H  0.87294024  0.27284714  0.81600094     0.13100
N670        N  0.90503151  0.28932173  0.90017277    -0.82600
H671        H  0.74700791  0.31445689  0.91811209     0.17900
N672        N  0.71554374  0.29923393  0.83372089    -0.81200
H673        H  0.92743215  0.28133812  0.87389779     0.33500
H674        H  0.90496564  0.27285302  0.92607857     0.38000
H675        H  0.69361665  0.30879109  0.85911939     0.33500
H676        H  0.71587343  0.31422786  0.80577706     0.30200
H677        H  0.85350108  0.30151586  0.69851506     0.33500
H678        H  0.82460402  0.31928894  0.74163708     0.30200
H679        H  0.71913485  0.18507077  0.74057004     0.38100
H680        H  0.68659365  0.20617984  0.77660723     0.33600
C681        C  0.92429445  0.64480207  0.84074712    -0.20200
C682        C  0.92590657  0.66306796  0.80050928     0.36000
C683        C  0.96183268  0.65836553  0.76731023    -0.26200
C684        C  0.99659215  0.63608889  0.77344351     0.02500
C685        C  0.99431546  0.61726354  0.81278221     0.27300
C686        C  0.95848356  0.62197511  0.84624072    -0.25300
N687        N  0.89225714  0.68714388  0.79430439    -0.82700
H688        H  0.96393016  0.67300208  0.73732758     0.13100
C689        C  0.03741510  0.63477484  0.74056544     0.02400
N690        N  0.02862172  0.59356966  0.81862965    -0.81200
H691        H  0.95723625  0.60777643  0.87674767     0.17900
C692        C  0.08288627  0.64135225  0.75720077    -0.26100
C693        C  0.12199356  0.64360717  0.72703894     0.35900
C694        C  0.11552105  0.63944786  0.67853163    -0.20100
C695        C  0.07000735  0.63169392  0.66228240    -0.25400
C696        C  0.03104374  0.62929021  0.69274292     0.27300
H697        H  0.08763500  0.64557403  0.79398493     0.13100
N698        N  0.16787639  0.65079415  0.74569369    -0.82600
H699        H  0.06437659  0.62825603  0.62545635     0.17900
N700        N  0.98485482  0.62172713  0.67527425    -0.81200
H701        H  0.18953237  0.63187407  0.74068155     0.33500
H702        H  0.16599768  0.65435086  0.78155682     0.38000
H703        H  0.98596307  0.61852608  0.63930603     0.33500
H704        H  0.97517504  0.60098386  0.68969612     0.30200
H705        H  0.02214434  0.58173749  0.84930157     0.33500
H706        H  0.02407432  0.57815833  0.79134790     0.30200
H707        H  0.89819705  0.70317049  0.82044948     0.38100
H708        H  0.89794445  0.69815259  0.76275392     0.33600
C709        C  0.16095434  0.81034460  0.07045767    -0.20200
C710        C  0.13366197  0.83111112  0.04457883     0.36000
C711        C  0.08875561  0.82213325  0.02778559    -0.26200
C712        C  0.07119522  0.79303747  0.03670385     0.02500
C713        C  0.09668821  0.77341526  0.06560686     0.27300
C714        C  0.14106522  0.78224984  0.08218308    -0.25300
N715        N  0.15193693  0.86063043  0.03423647    -0.82700
H716        H  0.06831598  0.83729356  0.00621216     0.13100
C717        C  0.02766809  0.78181381  0.01394222     0.02400
N718        N  0.07799391  0.74404448  0.07652535    -0.81200
H719        H  0.16109539  0.76648446  0.10312621     0.17900
C720        C  0.03236544  0.76058979  0.97790747    -0.26100
C721        C  0.99323094  0.74388158  0.96206155     0.35900
C722        C  0.94849129  0.74842898  0.98308758    -0.20100
C723        C  0.94335476  0.77143374  0.01672360    -0.25400
C724        C  0.98266563  0.78793354  0.03274194     0.27300
H725        H  0.06724054  0.75605313  0.96367563     0.13100
N726        N  0.99910530  0.72179305  0.92572238    -0.82600
H727        H  0.90912677  0.77529410  0.03276338     0.17900
N728        N  0.97748233  0.80983865  0.06942555    -0.81200
H729        H  0.03435044  0.72101877  0.91454142     0.33500
H730        H  0.97901140  0.72892041  0.89734059     0.38000
H731        H  0.94194492  0.81178504  0.07930484     0.33500
H732        H  0.99573625  0.80175294  0.09837854     0.30200
H733        H  0.10154196  0.73205722  0.09753652     0.33500
H734        H  0.04715199  0.74726249  0.09608568     0.30200
H735        H  0.18136151  0.85792017  0.01258490     0.38100
H736        H  0.12707272  0.87312996  0.01548424     0.33600
C737        C  0.44916292  0.75729186  0.04607269    -0.20200
C738        C  0.49471616  0.76431343  0.06356342     0.36000
C739        C  0.53385941  0.74686152  0.04946057    -0.26200
C740        C  0.52848498  0.72226687  0.01909300     0.02500
C741        C  0.48285782  0.71363148  0.00466321     0.27300
C742        C  0.44355345  0.73111326  0.01853293    -0.25300
N743        N  0.50138269  0.78951572  0.09458192    -0.82700
H744        H  0.56915185  0.75321944  0.06059946     0.13100
C745        C  0.57153350  0.70949344  0.99700946     0.02400
N746        N  0.47685087  0.68781911  0.97475572    -0.81200
H747        H  0.40874529  0.72512352  0.00567119     0.17900
C748        C  0.59381340  0.68371276  0.01510530    -0.26100
C749        C  0.63899263  0.67464519  0.99893977     0.35900
C750        C  0.66157543  0.69175668  0.96406296    -0.20100
C751        C  0.63748438  0.71624548  0.94414958    -0.25400
C752        C  0.59283898  0.72527975  0.96023347     0.27300
H753        H  0.57703872  0.67164221  0.04331791     0.13100
N754        N  0.66283288  0.64928246  0.01937781    -0.82600
H755        H  0.65464676  0.72929339  0.91717991     0.17900
N756        N  0.56993668  0.75143079  0.94101014    -0.81200
H757        H  0.64132505  0.63920264  0.04449586     0.33500
H758        H  0.69270708  0.65746788  0.03674934     0.38000
H759        H  0.59078836  0.76097974  0.91489489     0.33500
H760        H  0.53864364  0.74417506  0.92513157     0.30200
H761        H  0.44095149  0.68432228  0.96761938     0.33500
H762        H  0.49316725  0.69264421  0.94306040     0.30200
H763        H  0.53709895  0.79180656  0.10350925     0.38100
H764        H  0.48319639  0.78470332  0.12531781     0.33600
C765        C  0.81377867  0.58054844  0.98814212    -0.20200
C766        C  0.77809060  0.56150704  0.96972871     0.36000
C767        C  0.77750203  0.53067625  0.98160477    -0.26200
C768        C  0.81153462  0.51860254  0.01159729     0.02500
C769        C  0.84623512  0.53759466  0.03112472     0.27300
C770        C  0.84690444  0.56839187  0.01939504    -0.25300
N771        N  0.74269426  0.57345010  0.93902496    -0.82700
H772        H  0.75084590  0.51585173  0.96691767     0.13100
C773        C  0.81224259  0.48566790  0.02029821     0.02400
N774        N  0.88143733  0.52528383  0.06172392    -0.81200
H775        H  0.87442307  0.58274838  0.03361629     0.17900
C776        C  0.84163366  0.46732777  0.99297893    -0.26100
C777        C  0.84473998  0.43602397  0.00059356     0.35900
C778        C  0.81840021  0.42284246  0.03726334    -0.20100
C779        C  0.78825859  0.44143560  0.06402813    -0.25400
C780        C  0.78482135  0.47268663  0.05577815     0.27300
H781        H  0.86238169  0.47759992  0.96558982     0.13100
N782        N  0.87560321  0.41794574  0.97199282    -0.82600
H783        H  0.76760617  0.43162603  0.09186126     0.17900
N784        N  0.75376686  0.49131925  0.08329393    -0.81200
H785        H  0.89476763  0.43153917  0.94908941     0.33500
H786        H  0.85417042  0.40414091  0.95127866     0.38000
H787        H  0.73562122  0.47824785  0.10766412     0.33500
H788        H  0.77476095  0.50647488  0.10211048     0.30200
H789        H  0.90497529  0.54213209  0.07253568     0.33500
H790        H  0.86405092  0.51769339  0.09152756     0.30200
H791        H  0.72247328  0.58903021  0.95796859     0.38100
H792        H  0.71946499  0.55641388  0.92826295     0.33600
C793        C  0.79152704  0.74108277  0.82381947    -0.20200
C794        C  0.77835093  0.72668638  0.78191407     0.36000
C795        C  0.77250495  0.74374973  0.74169170    -0.26200
C796        C  0.77984763  0.77502673  0.74187897     0.02500
C797        C  0.79416161  0.78962113  0.78305555     0.27300
C798        C  0.79994061  0.77246790  0.82379179    -0.25300
N799        N  0.77127482  0.69463942  0.77969973    -0.82700
H800        H  0.76180602  0.73245185  0.70991287     0.13100
C801        C  0.77171055  0.79142001  0.69798559     0.02400
N802        N  0.80267588  0.82163100  0.78326200    -0.81200
H803        H  0.81029838  0.78371042  0.85568014     0.17900
C804        C  0.73126428  0.80966659  0.69322130    -0.26100
C805        C  0.71554597  0.81875353  0.64897835     0.35900
C806        C  0.74061393  0.80890367  0.60933626    -0.20100
C807        C  0.78305758  0.79274728  0.61469696    -0.25400
C808        C  0.79916978  0.78423081  0.65866068     0.27300
H809        H  0.71028673  0.81507144  0.72368220     0.13100
N810        N  0.67244995  0.83571841  0.64400542    -0.82600
H811        H  0.80257483  0.78550411  0.58420314     0.17900
N812        N  0.84187401  0.76678481  0.66351632    -0.81200
H813        H  0.65735282  0.84007840  0.67651986     0.33500
H814        H  0.68138238  0.85672440  0.63005516     0.38000
H815        H  0.85759378  0.76296311  0.63113198     0.33500
H816        H  0.86581535  0.77977063  0.68279287     0.30200
H817        H  0.81290710  0.82889539  0.81635049     0.33500
H818        H  0.83137108  0.82573515  0.76118368     0.30200
H819        H  0.73666668  0.69060443  0.76836424     0.38100
H820        H  0.79456345  0.68570235  0.75492632     0.33600
C821        C  0.75257367  0.76335649  0.32498715    -0.20200
C822        C  0.72684643  0.76907500  0.28403676     0.36000
C823        C  0.73750317  0.75292559  0.24337714    -0.26200
C824        C  0.77295671  0.73063343  0.24273336     0.02500
C825        C  0.79709893  0.72372081  0.28420370     0.27300
C826        C  0.78675389  0.74020285  0.32486153    -0.25300
N827        N  0.68978513  0.79121475  0.28350159    -0.82700
H828        H  0.71877239  0.75847771  0.21173405     0.13100
C829        C  0.78644729  0.71656679  0.19759388     0.02400
N830        N  0.83232859  0.70024330  0.28469592    -0.81200
H831        H  0.80639954  0.73545554  0.35627492     0.17900
C832        C  0.83364185  0.71855200  0.18228271    -0.26100
C833        C  0.84658639  0.70979841  0.13699179     0.35900
C834        C  0.81124923  0.69950386  0.10612056    -0.20100
C835        C  0.76461771  0.69595303  0.12230305    -0.25400
C836        C  0.75196458  0.70400703  0.16784652     0.27300
H837        H  0.86009653  0.72834695  0.20502031     0.13100
N838        N  0.89464747  0.71341490  0.12139544    -0.82600
H839        H  0.73759626  0.68768059  0.09878877     0.17900
N840        N  0.70398949  0.70027797  0.18365168    -0.81200
H841        H  0.91550247  0.72297948  0.14758100     0.33500
H842        H  0.90842223  0.69181805  0.11527489     0.38000
H843        H  0.68292810  0.69097395  0.15739734     0.33500
H844        H  0.70446142  0.68462080  0.21070460     0.30200
H845        H  0.84699492  0.69810186  0.31782163     0.33500
H846        H  0.81521656  0.67983165  0.27733002     0.30200
H847        H  0.69809220  0.80726987  0.25829453     0.38100
H848        H  0.65835776  0.78048678  0.27354438     0.33600
loop_ 
_geom_bond_atom_site_label_1 
_geom_bond_atom_site_label_2 
_geom_bond_distance 
_geom_bond_site_symmetry_2 
_ccdc_geom_bond_type 
O1          Cr19   2.021       .  S
O1            C9   1.270       .  A
O2          Cr19   1.981       .  S
O2            C3   1.257       .  A
C3            O4   1.260       .  A
C3          C722   1.486       .  S
O4          Cr20   2.000       .  S
O5          Cr20   1.980       .  S
O5            C6   1.264       .  A
C6            O7   1.269       .  A
C6          C793   1.484       .  S
O7          Cr21   2.009       .  S
O8          Cr21   1.976       .  S
O8            C9   1.261       .  A
C9          C681   1.490       .  S
O10         Cr19   1.976       .  S
O10          C18   1.259       .  A
O11         Cr19   2.028   1_554  S
O11          C12   1.273       .  A
C12          O13   1.261       .  A
C12         C834   1.480       .  S
O13         Cr20   1.964   1_554  S
O14         Cr20   1.992       .  S
O14          C15   1.262       .  A
C15          O16   1.263       .  A
C15         C750   1.480       .  S
O16         Cr21   2.005       .  S
O17         Cr21   2.006       .  S
O17          C18   1.264       .  A
C18         C765   1.488       .  S
Cr19         O22   1.770       .  S
Cr20         O22   1.768       .  S
Cr21         O22   1.768       .  S
O23         Cr41   2.020       .  S
O23          C31   1.271       .  A
O24         Cr41   1.970       .  S
O24          C25   1.258       .  A
C25          O26   1.263       .  A
C25         C541   1.488       .  S
O26         Cr42   2.005       .  S
O27         Cr42   1.983       .  S
O27          C28   1.262       .  A
C28          O29   1.267       .  A
C28         C625   1.485       .  S
O29         Cr43   2.006       .  S
O30         Cr43   1.975       .  S
O30          C31   1.262       .  A
C31         C597   1.493       .  S
O32         Cr41   1.975       .  S
O32          C40   1.257       .  A
O33         Cr41   2.025   1_556  S
O33          C34   1.270       .  A
C34          O35   1.257       .  A
C34         C666   1.476       .  S
O35         Cr42   1.957   1_556  S
O36         Cr42   1.994       .  S
O36          C37   1.265       .  A
C37          O38   1.263       .  A
C37         C582   1.475       .  S
O38         Cr43   1.991       .  S
O39         Cr43   2.009       .  S
O39          C40   1.265       .  A
C40         C778   1.491       .  S
Cr41         O44   1.767       .  S
Cr42         O44   1.766       .  S
Cr43         O44   1.769       .  S
O45         Cr63   1.980       .  S
O45          C53   1.264       .  A
O46         Cr63   1.996   1_554  S
O46          C47   1.264   1_554  A
C47          O48   1.261       .  A
C47         C569   1.479       .  S
O48         Cr64   1.988       .  S
O49         Cr64   2.003       .  S
O49          C50   1.263       .  A
C50          O51   1.262       .  A
C50         C485   1.493       .  S
O51         Cr65   1.980       .  S
O52         Cr65   2.018       .  S
O52          C53   1.270       .  A
C53         C513   1.488       .  S
O54         Cr63   1.996       .  S
O54          C62   1.261       .  A
O55         Cr63   1.995   1_554  S
O55          C56   1.265       .  A
C56          O57   1.266       .  A
C56         C457   1.480       .  S
O57         Cr64   1.997   1_554  S
O58         Cr64   1.961       .  S
O58          C59   1.256       .  A
C59          O60   1.266       .  A
C59         C554   1.467       .  S
O60         Cr65   2.017       .  S
O61         Cr65   1.994       .  S
O61          C62   1.262       .  A
C62         C429   1.494       .  S
Cr63         O66   1.767       .  S
Cr64         O66   1.765       .  S
Cr65         O66   1.770       .  S
O67         Cr85   2.023       .  S
O67          C75   1.271       .  A
O68         Cr85   1.981       .  S
O68          C69   1.257       .  A
C69          O70   1.261       .  A
C69         C737   1.491       .  S
O70         Cr86   2.004       .  S
O71         Cr86   1.969       .  S
O71          C72   1.261       .  A
C72          O73   1.270       .  A
C72         C401   1.472       .  S
O73         Cr87   2.011       .  S
O74         Cr87   1.972       .  S
O74          C75   1.262       .  A
C75         C345   1.491       .  S
O76         Cr85   1.973       .  S
O76          C84   1.258       .  A
O77         Cr85   2.030   1_556  S
O77          C78   1.274       .  A
C78          O79   1.258   1_556  A
C78         C386   1.484       .  S
O79         Cr86   1.951       .  S
O80         Cr86   1.988       .  S
O80          C81   1.262       .  A
C81          O82   1.264       .  A
C81         C709   1.484       .  S
O82         Cr87   2.004       .  S
O83         Cr87   2.011       .  S
O83          C84   1.265       .  A
C84         C442   1.488       .  S
Cr85         O88   1.771       .  S
Cr86         O88   1.768       .  S
Cr87         O88   1.772       .  S
O89        Cr107   2.025       .  S
O89          C97   1.272       .  A
O90        Cr107   1.959       .  S
O90          C91   1.255       .  A
C91          O92   1.266       .  A
C91         C302   1.476       .  S
O92        Cr108   2.016       .  S
O93        Cr108   1.980       .  S
O93          C94   1.261       .  A
C94          O95   1.269       .  A
C94         C470   1.490       .  S
O95        Cr109   2.008       .  S
O96        Cr109   1.971       .  S
O96          C97   1.261       .  A
C97         C610   1.494       .  S
O98        Cr107   1.967       .  S
O98         C106   1.255       .  A
O99        Cr107   2.026       .  S
O99         C100   1.269       .  A
C100        O101   1.258       .  A
C100        C498   1.481       .  S
O101       Cr108   1.962       .  S
O102       Cr108   2.004       .  S
O102        C103   1.266       .  A
C103        O104   1.261       .  A
C103        C261   1.466       .  S
O104       Cr109   1.984       .  S
O105       Cr109   2.012       .  S
O105        C106   1.265       .  A
C106        C317   1.490       .  S
Cr107       O110   1.766       .  S
Cr108       O110   1.768       .  S
Cr109       O110   1.765       .  S
O111       Cr129   2.019       .  S
O111        C119   1.271       .  A
O112       Cr129   1.965       .  S
O112        C113   1.255       .  A
C113        O114   1.262       .  A
C113        C233   1.479       .  S
O114       Cr130   2.009       .  S
O115       Cr130   1.982       .  S
O115        C116   1.263       .  A
C116        O117   1.268       .  A
C116        C373   1.485       .  S
O117       Cr131   2.002       .  S
O118       Cr131   1.976       .  S
O118        C119   1.262       .  A
C119        C694   1.500       .  S
O120       Cr129   1.967       .  S
O120        C128   1.255       .  A
O121       Cr129   2.019       .  S
O121        C122   1.271       .  A
C122        O123   1.260       .  A
C122        C414   1.476       .  S
O123       Cr130   1.964       .  S
O124       Cr130   1.997       .  S
O124        C125   1.263       .  A
C125        O126   1.263       .  A
C125        C218   1.476       .  S
O126       Cr131   1.998       .  S
O127       Cr131   2.003       .  S
O127        C128   1.262       .  A
C128        C330   1.473       .  S
Cr129       O132   1.770       .  S
Cr130       O132   1.771       .  S
Cr131       O132   1.768       .  S
O133       Cr151   1.971       .  S
O133        C141   1.261       .  A
O134       Cr151   2.003       .  S
O134        C135   1.268       .  A
C135        O136   1.263       .  A
C135        C274   1.477       .  S
O136       Cr152   1.984       .  S
O137       Cr152   2.010       .  S
O137        C138   1.264       .  A
C138        O139   1.256       .  A
C138        C653   1.487       .  S
O139       Cr153   1.970       .  S
O140       Cr153   2.016       .  S
O140        C141   1.270       .  A
C141        C526   1.493       .  S
O142       Cr151   2.005       .  S
O142        C150   1.265       .  A
O143       Cr151   1.993       .  S
O143        C144   1.263       .  A
C144        O145   1.264       .  A
C144        C638   1.478       .  S
O145       Cr152   1.993       .  S
O146       Cr152   1.959       .  S
O146        C147   1.258       .  A
C147        O148   1.269       .  A
C147        C289   1.470       .  S
O148       Cr153   2.018       .  S
O149       Cr153   1.978       .  S
O149        C150   1.257       .  A
C150        C190   1.488       .  S
Cr151       O154   1.768       .  S
Cr152       O154   1.769       .  S
Cr153       O154   1.769       .  S
O155       Cr173   1.978       .  S
O155        C163   1.264       .  A
O156       Cr173   2.000       .  S
O156        C157   1.265       .  A
C157        O158   1.261       .  A
C157        C205   1.474       .  S
O158       Cr174   1.983       .  S
O159       Cr174   2.004       .  S
O159        C160   1.264       .  A
C160        O161   1.259       .  A
C160        C821   1.483       .  S
O161       Cr175   1.977       .  S
O162       Cr175   2.020       .  S
O162        C163   1.271       .  A
C163        C358   1.488       .  S
O164       Cr173   1.993       .  S
O164        C172   1.261       .  A
O165       Cr173   1.994       .  S
O165        C166   1.263       .  A
C166        O167   1.264       .  A
C166        C806   1.475       .  S
O167       Cr174   1.992       .  S
O168       Cr174   1.959       .  S
O168        C169   1.257       .  A
C169        O170   1.268       .  A
C169        C246   1.480       .  S
O170       Cr175   2.023       .  S
O171       Cr175   1.994       .  S
O171        C172   1.261       .  A
C172        C177   1.490       .  S
Cr173       O176   1.770       .  S
Cr174       O176   1.772       .  S
Cr175       O176   1.774       .  S
C177        C178   1.418       .  A
C177        C182   1.408       .  A
C178        C179   1.402       .  A
C178        N183   1.439       .  S
C179        C180   1.398       .  A
C179        H184   1.084       .  S
C180        C185   1.480   1_565  S
C180        C181   1.408       .  A
C181        C182   1.411       .  A
C181        N186   1.437       .  S
C182        H187   1.083       .  S
N183        H203   1.046       .  S
N183        H204   1.046       .  S
C185        C188   1.400       .  A
C185        C192   1.407       .  A
N186        H201   1.046       .  S
N186        H202   1.045   1_565  S
C188        C189   1.410       .  A
C188        H193   1.084       .  S
C189        C190   1.419       .  A
C189        N194   1.438       .  S
C190        C191   1.405       .  A
C191        C192   1.403       .  A
C191        H195   1.084       .  S
C192        N196   1.438       .  S
N194        H197   1.046       .  S
N194        H198   1.046       .  S
N196        H199   1.045       .  S
N196        H200   1.046       .  S
C205        C206   1.413       .  A
C205        C210   1.401       .  A
C206        C207   1.411       .  A
C206        N211   1.437       .  S
C207        C208   1.403       .  A
C207        H212   1.083       .  S
C208        C213   1.481       .  S
C208        C209   1.410       .  A
C209        C210   1.401       .  A
C209        N214   1.438       .  S
C210        H215   1.084       .  S
N211        H231   1.046       .  S
N211        H232   1.046       .  S
C213        C216   1.401       .  A
C213        C220   1.410       .  A
N214        H229   1.046       .  S
N214        H230   1.046       .  S
C216        C217   1.400       .  A
C216        H221   1.084       .  S
C217        C218   1.412       .  A
C217        N222   1.439       .  S
C218        C219   1.405       .  A
C219        C220   1.411       .  A
C219        H223   1.084       .  S
C220        N224   1.437       .  S
N222        H225   1.046       .  S
N222        H226   1.045       .  S
N224        H227   1.045       .  S
N224        H228   1.046       .  S
C233        C234   1.413       .  A
C233        C238   1.404       .  A
C234        C235   1.409       .  A
C234        N239   1.437       .  S
C235        C236   1.402       .  A
C235        H240   1.084       .  S
C236        C241   1.477   1_455  S
C236        C237   1.407       .  A
C237        C238   1.400       .  A
C237        N242   1.439   1_455  S
C238        H243   1.084       .  S
N239        H259   1.045       .  S
N239        H260   1.046       .  S
C241        C244   1.403       .  A
C241        C248   1.406       .  A
N242        H257   1.046       .  S
N242        H258   1.045       .  S
C244        C245   1.409       .  A
C244        H249   1.084       .  S
C245        C246   1.413       .  A
C245        N250   1.437       .  S
C246        C247   1.406       .  A
C247        C248   1.401       .  A
C247        H251   1.083       .  S
C248        N252   1.438       .  S
N250        H253   1.046       .  S
N250        H254   1.046       .  S
N252        H255   1.046       .  S
N252        H256   1.046       .  S
C261        C262   1.407       .  A
C261        C266   1.403       .  A
C262        C263   1.399       .  A
C262        N267   1.438       .  S
C263        C264   1.402       .  A
C263        H268   1.084       .  S
C264        C269   1.478       .  S
C264        C265   1.409       .  A
C265        C266   1.408       .  A
C265        N270   1.437       .  S
C266        H271   1.083       .  S
N267        H287   1.046       .  S
N267        H288   1.046       .  S
C269        C272   1.402       .  A
C269        C276   1.408       .  A
N270        H285   1.046       .  S
N270        H286   1.045       .  S
C272        C273   1.411       .  A
C272        H277   1.083       .  S
C273        C274   1.414       .  A
C273        N278   1.437       .  S
C274        C275   1.402       .  A
C275        C276   1.398       .  A
C275        H279   1.083       .  S
C276        N280   1.439       .  S
N278        H281   1.046       .  S
N278        H282   1.046       .  S
N280        H283   1.046       .  S
N280        H284   1.046       .  S
C289        C290   1.412       .  A
C289        C294   1.401       .  A
C290        C291   1.402       .  A
C290        N295   1.438       .  S
C291        C292   1.400       .  A
C291        H296   1.084       .  S
C292        C297   1.476   1_655  S
C292        C293   1.410       .  A
C293        C294   1.404       .  A
C293        N298   1.437       .  S
C294        H299   1.084       .  S
N295        H315   1.046       .  S
N295        H316   1.046       .  S
C297        C300   1.399       .  A
C297        C304   1.408       .  A
N298        H313   1.046       .  S
N298        H314   1.045   1_655  S
C300        C301   1.399       .  A
C300        H305   1.084   1_455  S
C301        C302   1.415       .  A
C301        N306   1.439       .  S
C302        C303   1.404       .  A
C303        C304   1.408       .  A
C303        H307   1.084       .  S
C304        N308   1.437       .  S
N306        H309   1.046       .  S
N306        H310   1.045       .  S
N308        H311   1.046       .  S
N308        H312   1.045       .  S
C317        C318   1.420       .  A
C317        C322   1.409       .  A
C318        C319   1.404       .  A
C318        N323   1.438       .  S
C319        C320   1.398       .  A
C319        H324   1.084       .  S
C320        C325   1.475       .  S
C320        C321   1.406       .  A
C321        C322   1.406       .  A
C321        N326   1.438       .  S
C322        H327   1.083       .  S
N323        H343   1.046       .  S
N323        H344   1.046       .  S
C325        C328   1.402       .  A
C325        C332   1.408       .  A
N326        H341   1.045       .  S
N326        H342   1.045       .  S
C328        C329   1.408       .  A
C328        H333   1.084       .  S
C329        C330   1.411       .  A
C329        N334   1.437       .  S
C330        C331   1.403       .  A
C331        C332   1.402       .  A
C331        H335   1.084       .  S
C332        N336   1.438       .  S
N334        H337   1.046       .  S
N334        H338   1.046       .  S
N336        H339   1.046       .  S
N336        H340   1.045       .  S
C345        C346   1.414       .  A
C345        C350   1.406       .  A
C346        C347   1.414       .  A
C346        N351   1.437       .  S
C347        C348   1.407       .  A
C347        H352   1.083       .  S
C348        C353   1.496       .  S
C348        C349   1.412       .  A
C349        C350   1.404       .  A
C349        N354   1.439       .  S
C350        H355   1.084       .  S
N351        H371   1.046       .  S
N351        H372   1.046       .  S
C353        C356   1.405       .  A
C353        C360   1.413       .  A
N354        H369   1.046       .  S
N354        H370   1.046       .  S
C356        C357   1.408       .  A
C356        H361   1.084       .  S
C357        C358   1.412       .  A
C357        N362   1.438       .  S
C358        C359   1.406       .  A
C359        C360   1.411       .  A
C359        H363   1.083       .  S
C360        N364   1.438       .  S
N362        H365   1.046       .  S
N362        H366   1.046       .  S
N364        H367   1.046       .  S
N364        H368   1.045       .  S
C373        C374   1.417       .  A
C373        C378   1.407       .  A
C374        C375   1.409       .  A
C374        N379   1.437       .  S
C375        C376   1.400       .  A
C375        H380   1.084       .  S
C376        C381   1.474       .  S
C376        C377   1.406       .  A
C377        C378   1.399       .  A
C377        N382   1.439       .  S
C378        H383   1.084       .  S
N379        H399   1.045       .  S
N379        H400   1.046       .  S
C381        C384   1.396       .  A
C381        C388   1.409       .  A
N382        H397   1.046       .  S
N382        H398   1.045       .  S
C384        C385   1.401       .  A
C384        H389   1.084       .  S
C385        C386   1.419       .  A
C385        N390   1.439       .  S
C386        C387   1.405       .  A
C387        C388   1.407       .  A
C387        H391   1.083       .  S
C388        N392   1.438       .  S
N390        H393   1.046       .  S
N390        H394   1.045       .  S
N392        H395   1.045       .  S
N392        H396   1.045       .  S
C401        C402   1.414       .  A
C401        C406   1.402       .  A
C402        C403   1.407       .  A
C402        N407   1.438       .  S
C403        C404   1.400       .  A
C403        H408   1.084       .  S
C404        C409   1.473       .  S
C404        C405   1.408       .  A
C405        C406   1.400       .  A
C405        N410   1.438       .  S
C406        H411   1.084       .  S
N407        H427   1.045       .  S
N407        H428   1.046       .  S
C409        C412   1.399       .  A
C409        C416   1.408       .  A
N410        H425   1.046       .  S
N410        H426   1.046       .  S
C412        C413   1.403       .  A
C412        H417   1.084       .  S
C413        C414   1.414       .  A
C413        N418   1.438       .  S
C414        C415   1.404       .  A
C415        C416   1.404       .  A
C415        H419   1.084       .  S
C416        N420   1.438       .  S
N418        H421   1.046       .  S
N418        H422   1.046       .  S
N420        H423   1.046       .  S
N420        H424   1.046       .  S
C429        C430   1.420   1_556  A
C429        C434   1.409       .  A
C430        C431   1.402       .  A
C430        N435   1.439       .  S
C431        C432   1.399       .  A
C431        H436   1.084       .  S
C432        C437   1.487   1_545  S
C432        C433   1.409   1_554  A
C433        C434   1.411       .  A
C433        N438   1.437       .  S
C434        H439   1.083       .  S
N435        H455   1.046       .  S
N435        H456   1.046       .  S
C437        C440   1.404       .  A
C437        C444   1.409   1_554  A
N438        H453   1.046       .  S
N438        H454   1.045       .  S
C440        C441   1.412       .  A
C440        H445   1.084       .  S
C441        C442   1.415       .  A
C441        N446   1.437       .  S
C442        C443   1.406       .  A
C443        C444   1.403   1_554  A
C443        H447   1.083   1_554  S
C444        N448   1.438       .  S
N446        H449   1.046       .  S
N446        H450   1.046       .  S
N448        H451   1.046       .  S
N448        H452   1.045       .  S
C457        C458   1.414       .  A
C457        C462   1.406       .  A
C458        C459   1.397       .  A
C458        N463   1.438       .  S
C459        C460   1.396       .  A
C459        H464   1.084       .  S
C460        C465   1.476       .  S
C460        C461   1.410       .  A
C461        C462   1.412       .  A
C461        N466   1.437       .  S
C462        H467   1.083       .  S
N463        H483   1.044       .  S
N463        H484   1.046       .  S
C465        C468   1.402       .  A
C465        C472   1.405       .  A
N466        H481   1.046       .  S
N466        H482   1.045       .  S
C468        C469   1.412       .  A
C468        H473   1.084       .  S
C469        C470   1.419       .  A
C469        N474   1.437       .  S
C470        C471   1.408       .  A
C471        C472   1.398       .  A
C471        H475   1.083       .  S
C472        N476   1.439       .  S
N474        H477   1.046       .  S
N474        H478   1.045       .  S
N476        H479   1.046       .  S
N476        H480   1.045       .  S
C485        C486   1.422       .  A
C485        C490   1.406       .  A
C486        C487   1.410       .  A
C486        N491   1.438       .  S
C487        C488   1.400       .  A
C487        H492   1.084       .  S
C488        C493   1.481       .  S
C488        C489   1.408       .  A
C489        C490   1.402       .  A
C489        N494   1.438       .  S
C490        H495   1.083       .  S
N491        H511   1.046       .  S
N491        H512   1.046       .  S
C493        C496   1.400       .  A
C493        C500   1.410       .  A
N494        H509   1.045       .  S
N494        H510   1.046       .  S
C496        C497   1.402       .  A
C496        H501   1.084       .  S
C497        C498   1.414       .  A
C497        N502   1.438       .  S
C498        C499   1.405       .  A
C499        C500   1.409       .  A
C499        H503   1.084       .  S
C500        N504   1.437       .  S
N502        H505   1.046       .  S
N502        H506   1.045       .  S
N504        H507   1.046       .  S
N504        H508   1.046       .  S
C513        C514   1.418       .  A
C513        C518   1.407       .  A
C514        C515   1.409       .  A
C514        N519   1.438       .  S
C515        C516   1.400       .  A
C515        H520   1.084       .  S
C516        C521   1.480       .  S
C516        C517   1.408       .  A
C517        C518   1.405       .  A
C517        N522   1.438       .  S
C518        H523   1.084       .  S
N519        H539   1.045       .  S
N519        H540   1.046       .  S
C521        C524   1.397       .  A
C521        C528   1.407       .  A
N522        H537   1.046       .  S
N522        H538   1.046       .  S
C524        C525   1.404       .  A
C524        H529   1.084       .  S
C525        C526   1.420       .  A
C525        N530   1.437       .  S
C526        C527   1.410       .  A
C527        C528   1.409       .  A
C527        H531   1.083       .  S
C528        N532   1.437       .  S
N530        H533   1.046       .  S
N530        H534   1.045       .  S
N532        H535   1.046       .  S
N532        H536   1.045       .  S
C541        C542   1.417       .  A
C541        C546   1.407   1_655  A
C542        C543   1.404   1_554  A
C542        N547   1.432   1_554  S
C543        C544   1.398   1_656  A
C543        H548   1.084       .  S
C544        C549   1.475   1_554  S
C544        C545   1.407       .  A
C545        C546   1.402       .  A
C545        N550   1.438       .  S
C546        H551   1.083       .  S
N547        H567   1.045   1_556  S
N547        H568   1.046       .  S
C549        C552   1.403       .  A
C549        C556   1.414   1_556  A
N550        H565   1.046       .  S
N550        H566   1.045       .  S
C552        C553   1.404       .  A
C552        H557   1.084       .  S
C553        C554   1.408       .  A
C553        N558   1.438       .  S
C554        C555   1.402   1_556  A
C555        C556   1.400       .  A
C555        H559   1.084       .  S
C556        N560   1.438       .  S
N558        H561   1.046       .  S
N558        H562   1.045       .  S
N560        H563   1.045       .  S
N560        H564   1.044       .  S
C569        C570   1.412       .  A
C569        C574   1.404   1_556  A
C570        C571   1.411       .  A
C570        N575   1.437       .  S
C571        C572   1.405   1_556  A
C571        H576   1.083       .  S
C572        C577   1.480       .  S
C572        C573   1.408       .  A
C573        C574   1.398       .  A
C573        N578   1.439       .  S
C574        H579   1.084       .  S
N575        H595   1.046       .  S
N575        H596   1.046       .  S
C577        C580   1.405       .  A
C577        C584   1.408   1_554  A
N578        H593   1.046       .  S
N578        H594   1.046       .  S
C580        C581   1.409       .  A
C580        H585   1.084       .  S
C581        C582   1.409       .  A
C581        N586   1.437       .  S
C582        C583   1.404       .  A
C583        C584   1.401   1_554  A
C583        H587   1.084   1_554  S
C584        N588   1.439       .  S
N586        H589   1.046       .  S
N586        H590   1.045       .  S
N588        H591   1.045       .  S
N588        H592   1.046       .  S
C597        C598   1.418       .  A
C597        C602   1.407       .  A
C598        C599   1.406       .  A
C598        N603   1.439       .  S
C599        C600   1.403   1_655  A
C599        H604   1.084       .  S
C600        C605   1.494       .  S
C600        C601   1.412       .  A
C601        C602   1.409   1_455  A
C601        N606   1.438       .  S
C602        H607   1.083       .  S
N603        H623   1.045       .  S
N603        H624   1.046       .  S
C605        C608   1.403       .  A
C605        C612   1.412       .  A
N606        H621   1.046       .  S
N606        H622   1.045       .  S
C608        C609   1.407       .  A
C608        H613   1.083       .  S
C609        C610   1.418       .  A
C609        N614   1.438       .  S
C610        C611   1.407       .  A
C611        C612   1.408       .  A
C611        H615   1.083       .  S
C612        N616   1.438   1_455  S
N614        H617   1.046       .  S
N614        H618   1.046       .  S
N616        H619   1.045       .  S
N616        H620   1.046       .  S
C625        C626   1.417       .  A
C625        C630   1.408       .  A
C626        C627   1.401       .  A
C626        N631   1.439       .  S
C627        C628   1.398       .  A
C627        H632   1.084       .  S
C628        C633   1.477       .  S
C628        C629   1.409       .  A
C629        C630   1.409       .  A
C629        N634   1.438       .  S
C630        H635   1.083       .  S
N631        H651   1.046       .  S
N631        H652   1.046       .  S
C633        C636   1.404       .  A
C633        C640   1.407       .  A
N634        H649   1.045       .  S
N634        H650   1.044       .  S
C636        C637   1.410       .  A
C636        H641   1.084       .  S
C637        C638   1.411       .  A
C637        N642   1.437       .  S
C638        C639   1.405       .  A
C639        C640   1.400       .  A
C639        H643   1.084       .  S
C640        N644   1.439       .  S
N642        H645   1.046       .  S
N642        H646   1.045       .  S
N644        H647   1.046       .  S
N644        H648   1.044       .  S
C653        C654   1.416       .  A
C653        C658   1.410       .  A
C654        C655   1.402       .  A
C654        N659   1.439       .  S
C655        C656   1.403       .  A
C655        H660   1.084       .  S
C656        C661   1.486       .  S
C656        C657   1.408       .  A
C657        C658   1.408       .  A
C657        N662   1.437       .  S
C658        H663   1.083       .  S
N659        H679   1.045       .  S
N659        H680   1.046       .  S
C661        C664   1.406       .  A
C661        C668   1.410       .  A
N662        H677   1.046       .  S
N662        H678   1.045       .  S
C664        C665   1.409       .  A
C664        H669   1.083       .  S
C665        C666   1.412       .  A
C665        N670   1.438       .  S
C666        C667   1.403       .  A
C667        C668   1.400       .  A
C667        H671   1.084       .  S
C668        N672   1.438       .  S
N670        H673   1.046       .  S
N670        H674   1.046       .  S
N672        H675   1.045       .  S
N672        H676   1.046       .  S
C681        C682   1.417       .  A
C681        C686   1.406       .  A
C682        C683   1.408       .  A
C682        N687   1.439       .  S
C683        C684   1.402       .  A
C683        H688   1.084       .  S
C684        C689   1.491   1_655  S
C684        C685   1.411       .  A
C685        C686   1.411       .  A
C685        N690   1.437   1_655  S
C686        H691   1.083       .  S
N687        H707   1.046       .  S
N687        H708   1.046       .  S
C689        C692   1.401       .  A
C689        C696   1.410       .  A
N690        H705   1.045       .  S
N690        H706   1.046       .  S
C692        C693   1.408       .  A
C692        H697   1.084       .  S
C693        C694   1.421       .  A
C693        N698   1.438       .  S
C694        C695   1.410       .  A
C695        C696   1.410       .  A
C695        H699   1.083       .  S
C696        N700   1.437   1_455  S
N698        H701   1.045       .  S
N698        H702   1.046       .  S
N700        H703   1.046       .  S
N700        H704   1.046       .  S
C709        C710   1.415       .  A
C709        C714   1.407       .  A
C710        C711   1.414       .  A
C710        N715   1.437       .  S
C711        C712   1.405       .  A
C711        H716   1.083       .  S
C712        C717   1.479       .  S
C712        C713   1.405       .  A
C713        C714   1.397       .  A
C713        N718   1.439       .  S
C714        H719   1.084       .  S
N715        H735   1.044       .  S
N715        H736   1.046       .  S
C717        C720   1.402   1_554  A
C717        C724   1.406   1_455  A
N718        H733   1.046       .  S
N718        H734   1.046       .  S
C720        C721   1.405   1_455  A
C720        H725   1.084       .  S
C721        C722   1.414       .  A
C721        N726   1.438       .  S
C722        C723   1.409   1_556  A
C723        C724   1.406       .  A
C723        H727   1.083       .  S
C724        N728   1.438       .  S
N726        H729   1.046   1_655  S
N726        H730   1.046       .  S
N728        H731   1.046       .  S
N728        H732   1.046       .  S
C737        C738   1.416       .  A
C737        C742   1.410       .  A
C738        C739   1.406       .  A
C738        N743   1.438       .  S
C739        C740   1.401       .  A
C739        H744   1.084       .  S
C740        C745   1.481   1_554  S
C740        C741   1.406       .  A
C741        C742   1.408       .  A
C741        N746   1.438   1_554  S
C742        H747   1.083       .  S
N743        H763   1.046       .  S
N743        H764   1.046       .  S
C745        C748   1.405   1_556  A
C745        C752   1.407       .  A
N746        H761   1.046       .  S
N746        H762   1.045       .  S
C748        C749   1.414   1_554  A
C748        H753   1.083       .  S
C749        C750   1.413       .  A
C749        N754   1.437   1_556  S
C750        C751   1.404       .  A
C751        C752   1.399       .  A
C751        H755   1.084       .  S
C752        N756   1.439       .  S
N754        H757   1.046       .  S
N754        H758   1.045       .  S
N756        H759   1.046       .  S
N756        H760   1.045       .  S
C765        C766   1.416       .  A
C765        C770   1.407   1_556  A
C766        C767   1.408       .  A
C766        N771   1.437       .  S
C767        C768   1.400   1_556  A
C767        H772   1.084       .  S
C768        C773   1.480       .  S
C768        C769   1.407       .  A
C769        C770   1.406       .  A
C769        N774   1.438       .  S
C770        H775   1.083       .  S
N771        H791   1.046       .  S
N771        H792   1.046       .  S
C773        C776   1.399   1_554  A
C773        C780   1.406       .  A
N774        H789   1.046       .  S
N774        H790   1.045       .  S
C776        C777   1.406   1_556  A
C776        H781   1.084       .  S
C777        C778   1.419       .  A
C777        N782   1.438   1_554  S
C778        C779   1.409       .  A
C779        C780   1.407       .  A
C779        H783   1.083       .  S
C780        N784   1.438       .  S
N782        H785   1.046       .  S
N782        H786   1.046       .  S
N784        H787   1.046       .  S
N784        H788   1.045       .  S
C793        C794   1.413       .  A
C793        C798   1.409       .  A
C794        C795   1.396       .  A
C794        N799   1.433       .  S
C795        C796   1.399       .  A
C795        H800   1.084       .  S
C796        C801   1.479       .  S
C796        C797   1.408       .  A
C797        C798   1.410       .  A
C797        N802   1.437       .  S
C798        H803   1.083       .  S
N799        H819   1.046       .  S
N799        H820   1.046       .  S
C801        C804   1.405       .  A
C801        C808   1.407       .  A
N802        H817   1.046       .  S
N802        H818   1.046       .  S
C804        C805   1.411       .  A
C804        H809   1.084       .  S
C805        C806   1.410       .  A
C805        N810   1.437       .  S
C806        C807   1.404       .  A
C807        C808   1.400       .  A
C807        H811   1.083       .  S
C808        N812   1.438       .  S
N810        H813   1.046       .  S
N810        H814   1.045       .  S
N812        H815   1.046       .  S
N812        H816   1.046       .  S
C821        C822   1.410       .  A
C821        C826   1.407       .  A
C822        C823   1.401       .  A
C822        N827   1.433       .  S
C823        C824   1.404       .  A
C823        H828   1.084       .  S
C824        C829   1.488       .  S
C824        C825   1.411       .  A
C825        C826   1.407       .  A
C825        N830   1.437       .  S
C826        H831   1.083       .  S
N827        H847   1.045       .  S
N827        H848   1.046       .  S
C829        C832   1.406       .  A
C829        C836   1.410       .  A
N830        H845   1.046       .  S
N830        H846   1.045       .  S
C832        C833   1.407       .  A
C832        H837   1.083       .  S
C833        C834   1.412       .  A
C833        N838   1.438       .  S
C834        C835   1.405       .  A
C835        C836   1.404       .  A
C835        H839   1.084       .  S
C836        N840   1.438       .  S
N838        H841   1.046       .  S
N838        H842   1.045       .  S
N840        H843   1.046       .  S
N840        H844   1.045       .  S
