geometry optimzed in LAMMPS
_audit_creation_date              2020-12-01 
_audit_creation_method            'lammps2cif' 
_symmetry_space_group_name_H-M    'P1' 
_symmetry_Int_Tables_number       1 
_symmetry_cell_setting            triclinic 
loop_ 
_symmetry_equiv_pos_as_xyz 
  x,y,z 
_cell_length_a                    41.50722676 
_cell_length_b                    101.64053165820935 
_cell_length_c                    56.74506303968355 
_cell_angle_alpha                 89.97443754622225 
_cell_angle_beta                  89.84666282000451 
_cell_angle_gamma                 89.80429176688607 
loop_ 
_atom_site_label 
_atom_site_type_symbol 
_atom_site_fract_x 
_atom_site_fract_y 
_atom_site_fract_z 
_atom_site_charge 
O1          O  0.08547828  0.93566276  0.48527137    -0.70900
O2          O  0.05806196  0.93099464  0.54913818    -0.71200
O3          O  0.05060085  0.94996256  0.51676751    -0.71000
O4          O  0.09106502  0.91701639  0.51769626    -0.71000
O5          O  0.13672595  0.92575031  0.52732267    -0.71000
O6          O  0.09299358  0.95923165  0.53158524    -0.71000
O7          O  0.10378077  0.93874746  0.56107981    -0.71000
O8          O  0.12743062  0.94616694  0.49795982    -0.71100
V9          V  0.07213502  0.93367223  0.51741571     1.35200
V10         V  0.11444501  0.94238384  0.52922725     1.35200
C11         C  0.11188077  0.94140985  0.48087302     0.78300
C12         C  0.07702876  0.93353913  0.56602334     0.78400
C13         C  0.06368768  0.96006989  0.52526254     0.78200
C14         C  0.12057827  0.91557914  0.52200723     0.78200
O15         O  0.24980873  0.81313171  0.43703100    -0.70900
O16         O  0.28242630  0.81672017  0.50010474    -0.71200
O17         O  0.29696364  0.80137189  0.46279861    -0.71000
O18         O  0.23754965  0.82857218  0.47400036    -0.71000
O19         O  0.20266071  0.81481832  0.48830168    -0.71000
O20         O  0.26193224  0.78683804  0.47379078    -0.71000
O21         O  0.24885777  0.80169616  0.51163292    -0.71000
O22         O  0.21404188  0.79937964  0.44997240    -0.71100
V23         V  0.26605813  0.81460955  0.46864861     1.35200
V24         V  0.23249762  0.80091826  0.48056854     1.35200
C25         C  0.22546419  0.80591685  0.43295833     0.78300
C26         C  0.27068618  0.80980884  0.51669056     0.78400
C27         C  0.29030349  0.78950622  0.46679763     0.78200
C28         C  0.21069235  0.82658608  0.48363847     0.78200
O29         O  0.24447113  0.93543451  0.31629560    -0.70900
O30         O  0.27377636  0.93060974  0.25287684    -0.71200
O31         O  0.28769030  0.94745367  0.28795149    -0.71000
O32         O  0.23194247  0.91853337  0.28125739    -0.71000
O33         O  0.19562380  0.93121028  0.26552267    -0.71000
O34         O  0.24915904  0.96090048  0.27839475    -0.71000
O35         O  0.23872632  0.94505130  0.24117599    -0.71000
O36         O  0.20473103  0.94719215  0.30318324    -0.71100
V37         V  0.25881163  0.93330457  0.28444581     1.35200
V38         V  0.22270971  0.94588292  0.27243706     1.35200
C39         C  0.21875722  0.94182892  0.32046184     0.78300
C40         C  0.26083054  0.93696512  0.23610437     0.78400
C41         C  0.27829907  0.95909223  0.28425979     0.78200
C42         C  0.20523517  0.91976498  0.27098688     0.78200
O43         O  0.08590599  0.81251454  0.26839567    -0.70900
O44         O  0.05783751  0.81452196  0.20399966    -0.71200
O45         O  0.05053602  0.79722640  0.23911435    -0.71000
O46         O  0.09182305  0.82976122  0.23319699    -0.71000
O47         O  0.13751490  0.82004553  0.22627162    -0.71000
O48         O  0.09150204  0.78726525  0.22336986    -0.71000
O49         O  0.10419664  0.80685832  0.19275967    -0.71000
O50         O  0.12610416  0.80046436  0.25686459    -0.71100
V51         V  0.07232181  0.81328190  0.23600771     1.35200
V52         V  0.11413597  0.80377291  0.22507539     1.35200
C53         C  0.11134665  0.80618276  0.27356778     0.78300
C54         C  0.07678530  0.81137400  0.18728610     0.78400
C55         C  0.06241801  0.78687907  0.23039064     0.78200
C56         C  0.12173466  0.83058269  0.22982176     0.78200
O57         O  0.25048443  0.43623632  0.74578450    -0.70900
O58         O  0.28882145  0.43525521  0.68416618    -0.71200
O59         O  0.28490736  0.45322216  0.71892195    -0.71000
O60         O  0.25546968  0.41822175  0.71129329    -0.71000
O61         O  0.20915659  0.42561727  0.69951098    -0.71000
O62         O  0.24245235  0.46050747  0.70075379    -0.71000
O63         O  0.24244727  0.44085834  0.66972205    -0.71000
O64         O  0.20779890  0.44528817  0.73090616    -0.71100
V65         V  0.26912043  0.43589160  0.71485697     1.35200
V66         V  0.22630035  0.44295818  0.70056612     1.35200
C67         C  0.22230508  0.44088688  0.74879344     0.78300
C68         C  0.27149687  0.43765561  0.66626098     0.78400
C69         C  0.26980759  0.46272312  0.70973551     0.78200
C70         C  0.22701482  0.41590777  0.70473031     0.78200
O71         O  0.10268696  0.30893114  0.78371571    -0.70900
O72         O  0.06900481  0.31378528  0.72124168    -0.71200
O73         O  0.05998463  0.29597408  0.75554470    -0.71000
O74         O  0.10986175  0.32674031  0.74942330    -0.71000
O75         O  0.14766907  0.31556015  0.73202403    -0.71000
O76         O  0.10056638  0.28390037  0.74453733    -0.71000
O77         O  0.10609962  0.30056604  0.70817723    -0.71000
O78         O  0.14413173  0.29894305  0.76858124    -0.71100
V79         V  0.08607674  0.31107659  0.75235409     1.35200
V80         V  0.12390742  0.29990836  0.73872399     1.35200
C81         C  0.13050567  0.30388546  0.78641957     0.78300
C82         C  0.08201084  0.30780649  0.70400220     0.78400
C83         C  0.07111501  0.28475434  0.75050643     0.78200
C84         C  0.13648823  0.32657854  0.73874093     0.78200
O85         O  0.09064499  0.42778869  0.91454255    -0.70900
O86         O  0.06517811  0.42579718  0.97920065    -0.71200
O87         O  0.05146093  0.44183039  0.94313840    -0.71000
O88         O  0.10279819  0.41168727  0.95059683    -0.71000
O89         O  0.14416863  0.42363139  0.95972997    -0.71000
O90         O  0.09081105  0.45438381  0.95407780    -0.71000
O91         O  0.10662488  0.43754295  0.98880173    -0.71000
O92         O  0.12980829  0.44070721  0.92471684    -0.71100
V93         V  0.07829104  0.42705894  0.94701111     1.35200
V94         V  0.11712557  0.43886272  0.95652585     1.35200
C95         C  0.11496464  0.43458258  0.90877877     0.78300
C96         C  0.08222225  0.43109415  0.99509747     0.78400
C97         C  0.06149371  0.45318082  0.94814397     0.78200
C98         C  0.13188381  0.41234261  0.95667769     0.78200
O99         O  0.27353178  0.30802479  0.94835544    -0.70900
O100        O  0.30059693  0.30915118  0.01309785    -0.71200
O101        O  0.31043114  0.29250287  0.97656898    -0.71000
O102        O  0.26555226  0.32421798  0.98455621    -0.71000
O103        O  0.22112206  0.31376200  0.99155593    -0.71000
O104        O  0.26953683  0.28148079  0.98970149    -0.71000
O105        O  0.25572111  0.29972477  0.02280463    -0.71000
O106        O  0.23361857  0.29555219  0.95877542    -0.71100
V107        V  0.28684318  0.30818184  0.98080282     1.35200
V108        V  0.24584157  0.29777139  0.99055148     1.35200
C109        C  0.24813704  0.30183581  0.94279416     0.68700
C110        C  0.28158949  0.30517324  0.02914679     0.78400
C111        C  0.29860188  0.28159152  0.98264734     0.78200
C112        C  0.23563521  0.32456603  0.98814900     0.78200
O113        O  0.21442107  0.18725593  0.55280023    -0.70900
O114        O  0.18809108  0.18423673  0.48815569    -0.71200
O115        O  0.22673496  0.17070195  0.51735619    -0.71000
O116        O  0.17436396  0.20095247  0.52373642    -0.71000
O117        O  0.21317428  0.21334941  0.51110192    -0.71000
O118        O  0.26803658  0.18297395  0.50903111    -0.71000
O119        O  0.22997364  0.19560058  0.47798946    -0.71000
O120        O  0.25219562  0.20059421  0.54177697    -0.71100
V121        V  0.20154115  0.18608755  0.52036785     1.35200
V122        V  0.23999787  0.19793461  0.51017859     1.35200
C123        C  0.23881491  0.19414227  0.55808576     0.78300
C124        C  0.20551573  0.18907040  0.47191502     0.78400
C125        C  0.25635494  0.17167247  0.51281337     0.78200
C126        C  0.18405274  0.21222640  0.51760697     0.78200
O127        O  0.38457781  0.06204674  0.57418076    -0.70900
O128        O  0.41726876  0.06708148  0.51133106    -0.71200
O129        O  0.37908553  0.08050606  0.54069910    -0.71000
O130        O  0.42446080  0.04854754  0.54501535    -0.71000
O131        O  0.38396662  0.03795306  0.53029682    -0.71000
O132        O  0.33687163  0.07058384  0.52717450    -0.71000
O133        O  0.37510055  0.05695447  0.49826760    -0.71000
O134        O  0.34392586  0.05137033  0.55995063    -0.71100
V135        V  0.40054638  0.06428285  0.54265305     1.35200
V136        V  0.36075421  0.05436058  0.52930924     1.35200
C137        C  0.35810167  0.05608547  0.57766779     0.78300
C138        C  0.40077424  0.06311485  0.49392414     0.78400
C139        C  0.35097153  0.08124885  0.53247173     0.78200
C140        C  0.41283898  0.03786391  0.53768724     0.78200
O141        O  0.22434217  0.05897193  0.74372170    -0.70900
O142        O  0.19181193  0.06016468  0.80733177    -0.71200
O143        O  0.22622073  0.07620836  0.77947917    -0.71000
O144        O  0.18825234  0.04293176  0.77123133    -0.71000
O145        O  0.23017952  0.03337162  0.78639557    -0.71000
O146        O  0.27172627  0.06721973  0.78918404    -0.71000
O147        O  0.23759547  0.05220095  0.81896960    -0.71000
O148        O  0.26620827  0.04831597  0.75628554    -0.71100
V149        V  0.20845432  0.05934829  0.77560383     1.35200
V150        V  0.25058257  0.05039564  0.78741503     1.35200
C151        C  0.25148512  0.05364319  0.73934935     0.78300
C152        C  0.21016926  0.05673646  0.82415495     0.78400
C153        C  0.25528185  0.07757565  0.78538341     0.78200
C154        C  0.20171306  0.03252280  0.77832298     0.78200
O155        O  0.38193183  0.18455547  0.71775246    -0.70900
O156        O  0.41474556  0.18051692  0.78053770    -0.71200
O157        O  0.37367547  0.16730689  0.75295259    -0.71000
O158        O  0.42429695  0.19789948  0.74482883    -0.71000
O159        O  0.38479489  0.20998932  0.75778507    -0.71000
O160        O  0.33481474  0.17903455  0.76782081    -0.71000
O161        O  0.37624105  0.19317507  0.79336847    -0.71000
O162        O  0.34230488  0.19603536  0.73196758    -0.71100
V163        V  0.39800924  0.18283783  0.74925269     1.35200
V164        V  0.36030662  0.19434109  0.76235266     1.35200
C165        C  0.35571703  0.19071772  0.71436213     0.78300
C166        C  0.40058233  0.18614338  0.79766776     0.78400
C167        C  0.34595586  0.16786668  0.76206111     0.78200
C168        C  0.41345448  0.20913351  0.75018395     0.78200
O169        O  0.38891089  0.55520791  0.98922153    -0.70900
O170        O  0.42129151  0.55913085  0.92629889    -0.71200
O171        O  0.38818736  0.57419817  0.95685088    -0.71000
O172        O  0.42349069  0.54002411  0.95931942    -0.71000
O173        O  0.38048327  0.53181232  0.94345529    -0.71000
O174        O  0.34270613  0.56620423  0.94473826    -0.71000
O175        O  0.37546521  0.55209012  0.91310462    -0.71000
O176        O  0.34591943  0.54607166  0.97516669    -0.71100
V177        V  0.40471443  0.55691053  0.95766095     1.35200
V178        V  0.36202466  0.54914751  0.94441744     1.35200
C179        C  0.36123334  0.55029599  0.99276922     0.78300
C180        C  0.40297233  0.55676515  0.90892434     0.78400
C181        C  0.35940427  0.57607735  0.95074754     0.78200
C182        C  0.40870639  0.53013519  0.95145839     0.78200
O183        O  0.22539103  0.68431149  0.99591562    -0.70900
O184        O  0.19161336  0.67944711  0.93381417    -0.71200
O185        O  0.23232386  0.66645392  0.96184480    -0.71000
O186        O  0.18352159  0.69738134  0.96833080    -0.71000
O187        O  0.22257960  0.70893293  0.95350956    -0.71000
O188        O  0.27279490  0.67732367  0.94763688    -0.71000
O189        O  0.23175053  0.69076038  0.92003130    -0.71000
O190        O  0.26485548  0.69566544  0.98141935    -0.71100
V191        V  0.20899201  0.68215487  0.96471805     1.35200
V192        V  0.24723628  0.69298935  0.95095545     1.35200
C193        C  0.25144582  0.69054676  0.99918202     0.78300
C194        C  0.20633040  0.68432122  0.91628032     0.78400
C195        C  0.26057209  0.66640325  0.95366716     0.78200
C196        C  0.19421104  0.70839163  0.96183659     0.78200
O197        O  0.22140800  0.55991925  0.15374877    -0.70900
O198        O  0.18796354  0.56343349  0.21640632    -0.71200
O199        O  0.22771003  0.57745375  0.18824108    -0.71000
O200        O  0.18060192  0.54610311  0.18113168    -0.71000
O201        O  0.22073395  0.53474545  0.19488465    -0.71000
O202        O  0.26852568  0.56648663  0.20206515    -0.71000
O203        O  0.22867458  0.55221447  0.22951841    -0.71000
O204        O  0.26153596  0.54861072  0.16765426    -0.71100
V205        V  0.20516896  0.56149561  0.18516694     1.35200
V206        V  0.24410281  0.55073383  0.19823280     1.35200
C207        C  0.24762904  0.55377492  0.15020069     0.78300
C208        C  0.20264912  0.55822401  0.23369707     0.78400
C209        C  0.25614837  0.57737322  0.19591500     0.78200
C210        C  0.19215622  0.53512276  0.18708115     0.78200
O211        O  0.37867775  0.68811310  0.16602766    -0.70900
O212        O  0.41148310  0.68471704  0.22853908    -0.71200
O213        O  0.37661137  0.66970340  0.19961759    -0.71000
O214        O  0.41479744  0.70312874  0.19488282    -0.71000
O215        O  0.37357481  0.71185275  0.21272082    -0.71000
O216        O  0.33094872  0.67854346  0.20968021    -0.71000
O217        O  0.36525952  0.69146579  0.24199477    -0.71000
O218        O  0.33760289  0.69890066  0.17975276    -0.71100
V219        V  0.39456904  0.68660682  0.19743254     1.35200
V220        V  0.35259663  0.69511067  0.21068159     1.35200
C221        C  0.35214746  0.69396900  0.16223583     0.78300
C222        C  0.39324520  0.68713412  0.24597070     0.78400
C223        C  0.34740017  0.66830843  0.20522200     0.78200
C224        C  0.40190032  0.71300239  0.20451860     0.78200
O225        O  0.50274675  0.93443557  0.81796562    -0.70900
O226        O  0.03101186  0.93108423  0.75315915    -0.71200
O227        O  0.04576581  0.94770374  0.78837030    -0.71000
O228        O  0.49048402  0.91828073  0.78200876    -0.71000
O229        O  0.45055791  0.93062020  0.77095491    -0.71000
O230        O  0.50501545  0.96083706  0.77841845    -0.71000
O231        O  0.49011829  0.94419535  0.74311271    -0.71000
O232        O  0.46383550  0.94722690  0.80673215    -0.71100
V233        V  0.01749284  0.93334364  0.78515201     1.35200
V234        V  0.47814182  0.94555178  0.77517682     1.35200
C235        C  0.47764636  0.94097082  0.82314184     0.78300
C236        C  0.01528188  0.93657925  0.73668829     0.78400
C237        C  0.03675860  0.95921834  0.78320477     0.78200
C238        C  0.46198652  0.91920405  0.77458860     0.78200
O239        O  0.32871343  0.81055686  0.77098535    -0.70900
O240        O  0.29855261  0.81708854  0.70805742    -0.71200
O241        O  0.29196142  0.79763696  0.73942722    -0.71000
O242        O  0.33371686  0.83019462  0.73982343    -0.71000
O243        O  0.37885264  0.82112360  0.72933520    -0.71000
O244        O  0.33264309  0.78852270  0.72174166    -0.71000
O245        O  0.34434775  0.80987865  0.69463533    -0.71000
O246        O  0.36899912  0.79963350  0.75642158    -0.71100
V247        V  0.31408542  0.81367284  0.73934179     1.35200
V248        V  0.35548861  0.80489677  0.72580795     1.35200
C249        C  0.35426493  0.80389428  0.77440625     0.78300
C250        C  0.31703151  0.81488058  0.69061846     0.78400
C251        C  0.30375477  0.78773929  0.72918482     0.78200
C252        C  0.36336397  0.83134995  0.73564336     0.78200
O253        O  0.34148307  0.93065151  0.98584197    -0.70900
O254        O  0.30772096  0.92607557  0.04824262    -0.71200
O255        O  0.30711703  0.94551218  0.01598274    -0.71000
O256        O  0.34075181  0.91115608  0.01750830    -0.71000
O257        O  0.38751410  0.91840695  0.02823117    -0.71000
O258        O  0.34920134  0.95266140  0.03462538    -0.71000
O259        O  0.35455551  0.93127205  0.06220322    -0.71000
O260        O  0.38357243  0.93996996  0.00085858    -0.71100
V261        V  0.32509355  0.92848171  0.01716257     1.35200
V262        V  0.36795302  0.93548570  0.03120344     1.35200
C263        C  0.36842866  0.93628870  0.98277365     0.78300
C264        C  0.32598863  0.92760259  0.06596087     0.78400
C265        C  0.32145651  0.95483580  0.02603687     0.78200
C266        C  0.36993577  0.90882499  0.02201390     0.78200
O267        O  0.49455458  0.80431109  0.93632948    -0.70900
O268        O  0.02425490  0.80875433  0.99932597    -0.71200
O269        O  0.03651388  0.79193463  0.96391385    -0.71000
O270        O  0.48334202  0.82055417  0.97248473    -0.71000
O271        O  0.44680622  0.80774969  0.98737743    -0.71000
O272        O  0.50211079  0.77825586  0.97466061    -0.71000
O273        O  0.49104201  0.79407271  0.01167669    -0.71000
O274        O  0.45650768  0.79183876  0.94988962    -0.71100
V275        V  0.00861255  0.80635417  0.96784037     1.35200
V276        V  0.47476790  0.79317317  0.98049569     1.35200
C277        C  0.46888974  0.79789734  0.93260736     0.78300
C278        C  0.51394485  0.80178778  0.01632166     0.78400
C279        C  0.02729542  0.78042851  0.96871084     0.78200
C280        C  0.45618226  0.81925064  0.98212659     0.78200
O281        O  0.46395026  0.55907692  0.65505200    -0.70900
O282        O  0.43596730  0.56321124  0.71917475    -0.71200
O283        O  0.47558285  0.57587705  0.68957292    -0.71000
O284        O  0.42200526  0.54648107  0.68385723    -0.71000
O285        O  0.46003363  0.53335505  0.69543569    -0.71000
O286        O  0.01446763  0.56378883  0.69888811    -0.71000
O287        O  0.97514799  0.55012336  0.72741265    -0.71000
O288        O  0.00302001  0.54635098  0.66463421    -0.71100
V289        V  0.45000848  0.56083152  0.68713169     1.35200
V290        V  0.98782603  0.54848867  0.69573766     1.35200
C291        C  0.98990054  0.55262124  0.64806814     0.78300
C292        C  0.45141524  0.55742755  0.73549673     0.78400
C293        C  0.00268438  0.57500321  0.69396726     0.78200
C294        C  0.43095726  0.53497817  0.68899125     0.78200
O295        O  0.13449377  0.68608206  0.66467955    -0.70900
O296        O  0.16074842  0.68134188  0.72867637    -0.71200
O297        O  0.12881280  0.66699546  0.69693348    -0.71000
O298        O  0.16776439  0.70040606  0.69629657    -0.71000
O299        O  0.12437242  0.70926097  0.71075796    -0.71000
O300        O  0.08289219  0.67562172  0.70681685    -0.71000
O301        O  0.11451971  0.68899207  0.74022825    -0.71000
O302        O  0.09136003  0.69600012  0.67704579    -0.71100
V303        V  0.14710062  0.68390670  0.69683838     1.35200
V304        V  0.10410138  0.69234649  0.70840317     1.35200
C305        C  0.10802766  0.69177842  0.65999252     0.78300
C306        C  0.14156927  0.68412777  0.74541781     0.78400
C307        C  0.09944313  0.66545401  0.70191523     0.78200
C308        C  0.15350939  0.71045134  0.70424621     0.78200
O309        O  0.13011072  0.56165797  0.48640130    -0.70900
O310        O  0.15781582  0.56607034  0.42233039    -0.71200
O311        O  0.12027109  0.57962351  0.45306589    -0.71000
O312        O  0.16858960  0.54802949  0.45641837    -0.71000
O313        O  0.12805559  0.53697927  0.44270594    -0.71000
O314        O  0.07800894  0.56864164  0.44216260    -0.71000
O315        O  0.11493683  0.55573971  0.41103622    -0.71000
O316        O  0.09001851  0.54986426  0.47419445    -0.71100
V317        V  0.14351056  0.56359208  0.45431211     1.35200
V318        V  0.10361375  0.55298883  0.44280886     1.35200
C319        C  0.10462925  0.55529419  0.49105409     0.78300
C320        C  0.14039967  0.56180351  0.40564503     0.78400
C321        C  0.09085837  0.57951411  0.44753472     0.78200
C322        C  0.15703514  0.53719454  0.44965531     0.78200
O323        O  0.48065246  0.69010064  0.49497486    -0.70900
O324        O  0.44222500  0.68914452  0.43387114    -0.71200
O325        O  0.47901837  0.67296823  0.45911730    -0.71000
O326        O  0.44241388  0.70630134  0.47028811    -0.71000
O327        O  0.48258435  0.71565935  0.45239057    -0.71000
O328        O  0.02424731  0.68206896  0.44645820    -0.71000
O329        O  0.48693984  0.69666509  0.41917565    -0.71000
O330        O  0.02159624  0.70072821  0.48018231    -0.71100
V331        V  0.46188566  0.68984429  0.46433790     1.35200
V332        V  0.00357265  0.69893484  0.44974165     1.35200
C333        C  0.00804551  0.69524630  0.49750265     0.78300
C334        C  0.45916036  0.69205253  0.41599086     0.78400
C335        C  0.00762204  0.67180541  0.45023121     0.78200
C336        C  0.45534983  0.71663019  0.46255841     0.78200
O337        O  0.35681365  0.43978702  0.41458246    -0.70900
O338        O  0.32677036  0.43516934  0.47803834    -0.71200
O339        O  0.31337322  0.45216543  0.44293196    -0.71000
O340        O  0.36907743  0.42291370  0.44947391    -0.71000
O341        O  0.40613873  0.43555789  0.46402784    -0.71000
O342        O  0.35116848  0.46542261  0.45407332    -0.71000
O343        O  0.36313892  0.44890955  0.48990973    -0.71000
O344        O  0.39528292  0.45207961  0.42784134    -0.71100
V345        V  0.34214013  0.43781485  0.44644511     1.35200
V346        V  0.37822593  0.45027196  0.45859829     1.35200
C347        C  0.38234468  0.44625361  0.41063539     0.78300
C348        C  0.34007896  0.44131619  0.49484850     0.78400
C349        C  0.32217042  0.46375284  0.44776786     0.78200
C350        C  0.39668453  0.42414257  0.45838532     0.78200
O351        O  0.51405682  0.31303484  0.44955417    -0.70900
O352        O  0.04621503  0.31539188  0.51305772    -0.71200
O353        O  0.04658752  0.29710876  0.47868491    -0.71000
O354        O  0.51534273  0.33172164  0.48351266    -0.71000
O355        O  0.46812319  0.32430580  0.49304850    -0.71000
O356        O  0.50391680  0.28964751  0.49663798    -0.71000
O357        O  0.49900158  0.31010574  0.52565830    -0.71000
O358        O  0.47128859  0.30370859  0.46371833    -0.71100
V359        V  0.02934984  0.31431522  0.48142482     1.35200
V360        V  0.48644959  0.30704244  0.49439951     1.35200
C361        C  0.48640105  0.30802732  0.44603355     0.78300
C362        C  0.52754702  0.31331965  0.53038382     0.78400
C363        C  0.03179721  0.28763187  0.48810791     0.78200
C364        C  0.48622075  0.33402935  0.48854071     0.78200
O365        O  0.52037596  0.43743433  0.24766763    -0.70900
O366        O  0.03909908  0.43063289  0.18269951    -0.71200
O367        O  0.05099393  0.44930509  0.21394924    -0.71000
O368        O  0.50733404  0.41798960  0.21786995    -0.71000
O369        O  0.46289226  0.42803907  0.20879575    -0.71000
O370        O  0.51215029  0.45967431  0.20052924    -0.71000
O371        O  0.49507164  0.43957723  0.17300008    -0.71000
O372        O  0.47850199  0.44862217  0.23646531    -0.71100
V373        V  0.02675636  0.43383777  0.21462914     1.35200
V374        V  0.48793690  0.44381701  0.20494890     1.35200
C375        C  0.49552888  0.44413781  0.25301954     0.78300
C376        C  0.02095517  0.43461621  0.16619915     0.78400
C377        C  0.03884943  0.45963734  0.20563622     0.78200
C378        C  0.47736648  0.41752164  0.21477294     0.78200
O379        O  0.34305583  0.31274884  0.28477481    -0.70900
O380        O  0.31028553  0.31424201  0.22143790    -0.71200
O381        O  0.30232141  0.29812033  0.25886759    -0.71000
O382        O  0.35009210  0.32891695  0.24786110    -0.71000
O383        O  0.39074661  0.31731135  0.23535577    -0.71000
O384        O  0.34234657  0.28599074  0.24720350    -0.71000
O385        O  0.35083975  0.30224071  0.21039329    -0.71000
O386        O  0.38321800  0.30083613  0.27250322    -0.71100
V387        V  0.32717252  0.31324119  0.25304292     1.35200
V388        V  0.36599539  0.30182078  0.24162150     1.35200
C389        C  0.36896307  0.30656534  0.28930301     0.78300
C390        C  0.32576397  0.30860757  0.20492802     0.78400
C391        C  0.31368219  0.28680958  0.25482527     0.78200
C392        C  0.37831945  0.32846210  0.23968620     0.78200
O393        O  0.12444311  0.05243223  0.07417628    -0.70900
O394        O  0.16303156  0.05434720  0.01300435    -0.71200
O395        O  0.12133904  0.06878004  0.03763138    -0.71000
O396        O  0.16783380  0.03803195  0.04986917    -0.71000
O397        O  0.12945512  0.02594124  0.03594718    -0.71000
O398        O  0.08189814  0.05775604  0.02239154    -0.71000
O399        O  0.12428780  0.04239954  0.99909920    -0.71000
O400        O  0.08503869  0.04116961  0.05948192    -0.71100
V401        V  0.14335365  0.05310077  0.04342762     1.35200
V402        V  0.10583728  0.04196437  0.02960527     1.35200
C403        C  0.09728146  0.04695505  0.07700069     0.78300
C404        C  0.14986143  0.04877464  0.99552145     0.78400
C405        C  0.09421650  0.06877529  0.02782970     0.78200
C406        C  0.15775054  0.02677994  0.04441136     0.78200
O407        O  0.46833201  0.18079694  0.05081104    -0.70900
O408        O  0.44125243  0.17791133  0.98603631    -0.71200
O409        O  0.97472897  0.16196013  0.01874066    -0.71000
O410        O  0.43694202  0.19642509  0.01931391    -0.71000
O411        O  0.48064621  0.20408092  0.00337698    -0.71000
O412        O  0.02084773  0.16983007  0.00761936    -0.71000
O413        O  0.98881718  0.18272108  0.97390364    -0.71000
O414        O  0.01545178  0.19098257  0.03574498    -0.71100
V415        V  0.45508474  0.17945758  0.01826625     1.35200
V416        V  0.00091860  0.18671457  0.00506219     1.35200
C417        C  0.00007766  0.18706071  0.05367653     0.78300
C418        C  0.46120491  0.18029679  0.96950689     0.78400
C419        C  0.00386008  0.16000466  0.01350782     0.78200
C420        C  0.45163566  0.20586229  0.00975505     0.78200
O421        O  0.46186982  0.05775380  0.24062346    -0.70900
O422        O  0.43538509  0.06392264  0.30464269    -0.71200
O423        O  0.47022950  0.07680974  0.27184131    -0.71000
O424        O  0.42521551  0.04483796  0.27265013    -0.71000
O425        O  0.46714168  0.03435325  0.28563374    -0.71000
O426        O  0.01308865  0.06632021  0.28210172    -0.71000
O427        O  0.47846043  0.05378576  0.31649598    -0.71000
O428        O  0.99999777  0.04657806  0.25237669    -0.71100
V429        V  0.44887223  0.06057054  0.27274460     1.35200
V430        V  0.48987915  0.05080953  0.28482580     1.35200
C431        C  0.48871146  0.05213530  0.23657117     0.78300
C432        C  0.45288798  0.05986689  0.32152565     0.78400
C433        C  0.00025678  0.07692659  0.27486007     0.78200
C434        C  0.43782998  0.03416443  0.27929654     0.78200
O435        O  0.08789086  0.17669531  0.26303873    -0.70900
O436        O  0.13223154  0.20964026  0.26064058    -0.71200
O437        O  0.09684714  0.19523901  0.22975500    -0.71000
O438        O  0.12215412  0.19137738  0.29330725    -0.71000
O439        O  0.16720313  0.18250112  0.28210854    -0.71000
O440        O  0.13837471  0.18410245  0.21781113    -0.71000
O441        O  0.17424698  0.19954746  0.24647364    -0.71000
O442        O  0.13257431  0.16691419  0.25361374    -0.71100
V443        V  0.11054827  0.19306496  0.26130854     1.35200
V444        V  0.15227656  0.18345841  0.25017300     1.35200
C445        C  0.10329995  0.16608190  0.25945367     0.78300
C446        C  0.16123735  0.21003389  0.25365412     0.78400
C447        C  0.11216313  0.18996382  0.21290620     0.78200
C448        C  0.14934014  0.18673497  0.29870178     0.78200
C449        C  0.02797089  0.11016897  0.25234414    -0.13500
C450        C  0.05072862  0.11363678  0.26934345     0.16900
C451        C  0.05829147  0.10464108  0.28746581     0.03100
C452        C  0.04255489  0.09245996  0.28848181    -0.12000
C453        C  0.01889770  0.08918319  0.27193269    -0.03100
C454        C  0.50962325  0.09847723  0.25515385     0.02400
C455        C  0.06490623  0.12694588  0.26811700     0.09200
N456        N  0.08039213  0.10800766  0.30571385     0.65600
H457        H  0.04786007  0.08577428  0.30288472     0.18500
N458        N  0.48757667  0.09484606  0.23697735     0.76100
H459        H  0.51875252  0.11725034  0.23918563     0.10000
C460        C  0.09661564  0.12895690  0.26019096     0.03700
C461        C  0.10821088  0.14175241  0.25751203    -0.05000
C462        C  0.08871080  0.15281752  0.26224842    -0.23400
C463        C  0.05666154  0.15074933  0.26986562     0.13000
C464        C  0.04518156  0.13788286  0.27277881    -0.12500
N465        N  0.11686800  0.11816648  0.25360072     0.64600
H466        H  0.13277404  0.14296456  0.25132164     0.12500
N467        N  0.03526814  0.16149357  0.27438532     0.61300
H468        H  0.02044119  0.13639900  0.27839629     0.08600
O469        O  0.49842436  0.09003869  0.21804114    -0.40200
O470        O  0.45929950  0.09944611  0.23738466    -0.39400
O471        O  0.06971968  0.11321003  0.32436107    -0.39400
O472        O  0.10792018  0.10271184  0.30589701    -0.37100
O473        O  0.01605719  0.16515944  0.25846334    -0.38000
O474        O  0.03030714  0.16507888  0.29537157    -0.34100
O475        O  0.11761936  0.11460327  0.23230727    -0.35500
O476        O  0.13972513  0.11487267  0.26699629    -0.39800
C477        C  0.02045315  0.18297750  0.11932925    -0.13500
C478        C  0.04843833  0.19062857  0.12122702     0.16900
C479        C  0.05948836  0.19738935  0.10110352     0.03100
C480        C  0.04268123  0.19639502  0.07976422    -0.12000
C481        C  0.01480452  0.18861341  0.07761132    -0.03100
C482        C  0.00370352  0.18186706  0.09789958     0.02400
C483        C  0.06594249  0.19118223  0.14419091     0.09200
N484        N  0.08761468  0.20542627  0.10203395     0.65600
H485        H  0.05195402  0.20169496  0.06460890     0.18500
N486        N  0.47038044  0.17177954  0.09795801     0.76100
H487        H  0.50420280  0.17598279  0.13659777     0.10000
C488        C  0.05092612  0.19621706  0.16456339     0.03700
C489        C  0.06701143  0.19598343  0.18618225    -0.05000
C490        C  0.09804595  0.19050567  0.18859079    -0.23400
C491        C  0.11318983  0.18538592  0.16809949     0.13000
C492        C  0.09719895  0.18591471  0.14619213    -0.12500
N493        N  0.01908365  0.20156342  0.16370713     0.64600
H494        H  0.05444819  0.19993510  0.20141123     0.12500
N495        N  0.14416421  0.17925314  0.16916370     0.61300
H496        H  0.10888481  0.18176627  0.13075190     0.08600
O497        O  0.44318549  0.17543543  0.10553398    -0.40200
O498        O  0.47565374  0.15967504  0.09480770    -0.39400
O499        O  0.11385973  0.20100175  0.09397428    -0.39400
O500        O  0.08449656  0.21764795  0.10523633    -0.37100
O501        O  0.14586882  0.16689465  0.17096909    -0.38000
O502        O  0.16854826  0.18553709  0.16216295    -0.34100
O503        O  0.48981260  0.19605539  0.17366090    -0.35500
O504        O  0.01545114  0.21385124  0.16192466    -0.39800
C505        C  0.03024199  0.04813627  0.12337309    -0.13500
C506        C  0.04770729  0.05020101  0.14410951     0.16900
C507        C  0.08164779  0.05093731  0.14273860     0.03100
C508        C  0.09726898  0.04985634  0.12083003    -0.12000
C509        C  0.07984524  0.04767476  0.10001187    -0.03100
C510        C  0.04582008  0.04676013  0.10154019     0.02400
C511        C  0.03026659  0.05043438  0.16709545     0.09200
N512        N  0.10060592  0.05284983  0.16342289     0.65600
H513        H  0.12334944  0.05059506  0.12016975     0.18500
N514        N  0.02652524  0.04465321  0.08109249     0.76100
H515        H  0.51767713  0.03503939  0.13142418     0.10000
C516        C  0.00672187  0.06005702  0.17249060     0.03700
C517        C  0.48450285  0.05342561  0.19244769    -0.05000
C518        C  0.99697333  0.04979194  0.21085491    -0.23400
C519        C  0.01930377  0.03978673  0.20482865     0.13000
C520        C  0.03574849  0.04025063  0.18324681    -0.12500
N521        N  0.47796103  0.05512373  0.14982945     0.64600
H522        H  0.45871338  0.05492717  0.19420977     0.12500
N523        N  0.02481480  0.02882726  0.22008148     0.61300
H524        H  0.05266869  0.03245137  0.17890854     0.08600
O525        O  0.51890238  0.03176827  0.07738826    -0.40200
O526        O  0.01703000  0.03317054  0.07639875    -0.39400
O527        O  0.11484136  0.04312937  0.17257955    -0.39400
O528        O  0.10900610  0.06434018  0.16906542    -0.37100
O529        O  0.00793924  0.01861249  0.21770042    -0.38000
O530        O  0.05052657  0.02823136  0.23184953    -0.34100
O531        O  0.46060547  0.04570050  0.14300730    -0.35500
O532        O  0.01543634  0.08125799  0.15862749    -0.39800
C533        C  0.04585966  0.09721057  0.00137406    -0.13500
C534        C  0.05748682  0.10766652  0.01504704     0.16900
C535        C  0.07950009  0.10513276  0.03320177     0.03100
C536        C  0.08973491  0.09231287  0.03737342    -0.12000
C537        C  0.07886333  0.08173012  0.02355277    -0.03100
C538        C  0.05651073  0.08425568  0.00538067     0.02400
C539        C  0.04318870  0.12085972  0.01280434     0.09200
N540        N  0.58477665  0.11529242  0.04922220     0.65600
H541        H  0.10666805  0.09068068  0.05163306     0.18500
N542        N  0.04513592  0.07395943  0.99050288     0.76100
H543        H  0.02828738  0.09912049  0.98765394     0.10000
C544        C  0.05807790  0.13099023  0.99988269     0.03700
C545        C  0.04508960  0.14371545  0.00050214    -0.05000
C546        C  0.01727045  0.14650642  0.01375553    -0.23400
C547        C  0.00221575  0.13618305  0.02639808     0.13000
C548        C  0.01537992  0.12354854  0.02583003    -0.12500
N549        N  0.08615534  0.12850214  0.98596279     0.64600
H550        H  0.05671098  0.15142400  0.99036629     0.12500
N551        N  0.97429534  0.13837843  0.04065688     0.61300
H552        H  0.00414252  0.11578796  0.03609659     0.08600
O553        O  0.05845716  0.07210741  0.97076232    -0.40200
O554        O  0.01786242  0.06897287  0.99448584    -0.39400
O555        O  0.57099463  0.11753136  0.06866255    -0.39400
O556        O  0.61259272  0.11985292  0.04563534    -0.37100
O557        O  0.97759734  0.13956242  0.06264204    -0.38000
O558        O  0.43923815  0.13570454  0.02644584    -0.34100
O559        O  0.08316863  0.12684141  0.96404362    -0.35500
O560        O  0.11351752  0.13120663  0.99424556    -0.39800
C561        C  0.28046399  0.25184193  0.25403469    -0.13500
C562        C  0.24757330  0.25432767  0.25792242     0.16900
C563        C  0.23757149  0.26720041  0.26350832     0.03100
C564        C  0.25991676  0.27741265  0.26340828    -0.12000
C565        C  0.29256334  0.27516456  0.25795996    -0.03100
C566        C  0.30302620  0.26208641  0.25416821     0.02400
C567        C  0.22409298  0.24340816  0.25627837     0.09200
N568        N  0.20453859  0.27021167  0.26827638     0.65600
H569        H  0.25116360  0.28729534  0.26686364     0.18500
N570        N  0.33629629  0.25897201  0.25076688     0.76100
H571        H  0.28869836  0.24185463  0.25086977     0.10000
C572        C  0.22132397  0.23580977  0.23558912     0.03700
C573        C  0.19982408  0.22525965  0.23487365    -0.05000
C574        C  0.18051090  0.22217217  0.25436989    -0.23400
C575        C  0.18316675  0.22978270  0.27505527     0.13000
C576        C  0.20483556  0.24030105  0.27582487    -0.12500
N577        N  0.23989023  0.23878524  0.21505130     0.64600
H578        H  0.19834237  0.21936487  0.21896778     0.12500
N579        N  0.16623803  0.22628681  0.29604737     0.61300
H580        H  0.20742382  0.24579896  0.29209370     0.08600
O581        O  0.34635628  0.25611867  0.23039419    -0.40200
O582        O  0.35335803  0.25608617  0.26841627    -0.39400
O583        O  0.19584279  0.27249100  0.28921323    -0.39400
O584        O  0.18642773  0.27365742  0.25153923    -0.37100
O585        O  0.17991582  0.21890579  0.31088300    -0.38000
O586        O  0.14243052  0.23317311  0.30243810    -0.34100
O587        O  0.26379746  0.23164757  0.20983524    -0.35500
O588        O  0.22836004  0.24645006  0.19972386    -0.39800
C589        C  0.41840600  0.38870252  0.21370611    -0.13500
C590        C  0.43581135  0.37938102  0.22682712     0.16900
C591        C  0.46599176  0.38274809  0.23605786     0.03100
C592        C  0.47814646  0.39531690  0.23230047    -0.12000
C593        C  0.46117680  0.40474978  0.21898244    -0.03100
C594        C  0.43086360  0.40134153  0.20961330     0.02400
C595        C  0.42250542  0.36610672  0.23049124     0.09200
N596        N  0.48524466  0.37334415  0.24844406     0.65600
H597        H  0.50157777  0.39760068  0.23970049     0.18500
N598        N  0.41320894  0.41027129  0.19508908     0.76100
H599        H  0.39517772  0.38607197  0.20633640     0.10000
C600        C  0.40748067  0.36268971  0.25187188     0.03700
C601        C  0.39422267  0.35018176  0.25457671    -0.05000
C602        C  0.39587560  0.34087959  0.23636688    -0.23400
C603        C  0.41142611  0.34420198  0.21506676     0.13000
C604        C  0.42462853  0.35679813  0.21230853    -0.12500
N605        N  0.40447668  0.37195550  0.27068724     0.64600
H606        H  0.38206053  0.34777338  0.27096605     0.12500
N607        N  0.41200320  0.33530451  0.19559150     0.61300
H608        H  0.43607895  0.35941857  0.19576440     0.08600
O609        O  0.38991555  0.41662952  0.20382582    -0.40200
O610        O  0.41598172  0.40950450  0.17298020    -0.39400
O611        O  0.00576402  0.36495568  0.19894741    -0.39400
O612        O  0.48747198  0.37413237  0.27056540    -0.37100
O613        O  0.39038413  0.33614263  0.18006100    -0.38000
O614        O  0.43749608  0.32898355  0.19109608    -0.34100
O615        O  0.37901749  0.37870380  0.27244968    -0.35500
O616        O  0.42286331  0.37097265  0.28827216    -0.39800
C617        C  0.41687191  0.29624934  0.34364944    -0.13500
C618        C  0.41598747  0.30777108  0.35719161     0.16900
C619        C  0.39804186  0.31864071  0.34885879     0.03100
C620        C  0.38165672  0.31783491  0.32725886    -0.12000
C621        C  0.38327675  0.30643514  0.31334228    -0.03100
C622        C  0.40089346  0.29548985  0.32191549     0.02400
C623        C  0.43412181  0.30818939  0.37981946     0.09200
N624        N  0.39787962  0.33083791  0.36134070     0.65600
H625        H  0.36877878  0.32642479  0.32081996     0.18500
N626        N  0.40218167  0.28340973  0.30906758     0.76100
H627        H  0.43025018  0.28776193  0.34998268     0.10000
C628        C  0.41821159  0.30698054  0.40162887     0.03700
C629        C  0.43597916  0.30686637  0.42256243    -0.05000
C630        C  0.46986434  0.30783889  0.42260536    -0.23400
C631        C  0.48588682  0.30883232  0.40066396     0.13000
C632        C  0.46795251  0.30898883  0.37957238    -0.12500
N633        N  0.38405539  0.30536882  0.40285961     0.64600
H634        H  0.42284447  0.30603621  0.43903640     0.12500
N635        N  0.52022366  0.30908440  0.39932846     0.61300
H636        H  0.48055004  0.30960301  0.36284584     0.08600
O637        O  0.38285568  0.27430488  0.31432422    -0.40200
O638        O  0.42674722  0.28078255  0.29677376    -0.39400
O639        O  0.41843866  0.33946656  0.35602128    -0.39400
O640        O  0.37301756  0.33420495  0.37269215    -0.37100
O641        O  0.53542107  0.29844477  0.39626181    -0.38000
O642        O  0.53431510  0.31986454  0.39557585    -0.34100
O643        O  0.37258810  0.29390178  0.40391959    -0.35500
O644        O  0.36671183  0.31497394  0.40911268    -0.39800
C645        C  0.45203349  0.45690518  0.30767467    -0.13500
C646        C  0.45475151  0.44608205  0.32282750     0.16900
C647        C  0.47354421  0.43519530  0.31572453     0.03100
C648        C  0.48865333  0.43519852  0.29356164    -0.12000
C649        C  0.48464746  0.44574986  0.27783874    -0.03100
C650        C  0.46636359  0.45679051  0.28526883     0.02400
C651        C  0.43622826  0.44608631  0.34527817     0.09200
N652        N  0.47675919  0.42391696  0.33055560     0.65600
H653        H  0.00983002  0.42939591  0.28988911     0.18500
N654        N  0.46163887  0.46789139  0.27019598     0.76100
H655        H  0.43759332  0.46534694  0.31295411     0.10000
C656        C  0.44411384  0.45468473  0.36378219     0.03700
C657        C  0.42538741  0.45489729  0.38430632    -0.05000
C658        C  0.39844158  0.44665845  0.38708056    -0.23400
C659        C  0.38996505  0.43829613  0.36813724     0.13000
C660        C  0.40897086  0.43804801  0.34758073    -0.12500
N661        N  0.47177818  0.46296472  0.36235216     0.64600
H662        H  0.43259895  0.46143645  0.39843617     0.12500
N663        N  0.36243191  0.42993475  0.36941892     0.61300
H664        H  0.40220895  0.43160728  0.33317635     0.08600
O665        O  0.47853973  0.47804066  0.27325210    -0.40200
O666        O  0.43597197  0.46877404  0.25842034    -0.39400
O667        O  0.97798535  0.41510305  0.33328126    -0.39400
O668        O  0.50077820  0.42297720  0.34403619    -0.37100
O669        O  0.36628770  0.41782213  0.37342388    -0.38000
O670        O  0.33594108  0.43393539  0.36118281    -0.34100
O671        O  0.46803582  0.47512913  0.35880379    -0.35500
O672        O  0.49836927  0.45880373  0.37014794    -0.39800
C673        C  0.48132785  0.37151569  0.48981409    -0.13500
C674        C  0.44928722  0.37363732  0.48313740     0.16900
C675        C  0.42890213  0.36268265  0.48000945     0.03100
C676        C  0.44106591  0.34990229  0.48281347    -0.12000
C677        C  0.47356398  0.34772128  0.48835749    -0.03100
C678        C  0.49364234  0.35873599  0.49237200     0.02400
C679        C  0.43856410  0.38713519  0.47682090     0.09200
N680        N  0.39588988  0.36438172  0.47357500     0.65600
H681        H  0.42518504  0.34161662  0.47975441     0.18500
N682        N  0.02488436  0.35713914  0.50081329     0.76100
H683        H  0.49730970  0.37984409  0.49215148     0.10000
C684        C  0.43809881  0.39757480  0.49325017     0.03700
C685        C  0.42672877  0.41001680  0.48640481    -0.05000
C686        C  0.41586323  0.41224432  0.46337847    -0.23400
C687        C  0.41850634  0.40207709  0.44659837     0.13000
C688        C  0.42973610  0.38967083  0.45342593    -0.12500
N689        N  0.44729642  0.39552880  0.51720756     0.64600
H690        H  0.42457368  0.41774489  0.49952960     0.12500
N691        N  0.41032936  0.40428334  0.42247330     0.61300
H692        H  0.43148940  0.38191355  0.44032985     0.08600
O693        O  0.03153529  0.35810281  0.52242654    -0.40200
O694        O  0.04724596  0.35797939  0.48578344    -0.39400
O695        O  0.38745542  0.36239622  0.45252911    -0.39400
O696        O  0.37467064  0.36490507  0.48951058    -0.37100
O697        O  0.43187812  0.40808159  0.40831395    -0.38000
O698        O  0.38436042  0.39970006  0.41446944    -0.34100
O699        O  0.47423595  0.39970281  0.52417102    -0.35500
O700        O  0.42599785  0.39261887  0.53221672    -0.39800
C701        C  0.28070487  0.49753108  0.45184982    -0.13500
C702        C  0.24814334  0.49393006  0.45007187     0.16900
C703        C  0.24057356  0.48061023  0.44631125     0.03100
C704        C  0.26517268  0.47120456  0.44496436    -0.12000
C705        C  0.29784941  0.47463996  0.44725309    -0.03100
C706        C  0.30552106  0.48809478  0.45038609     0.02400
C707        C  0.22256967  0.50424801  0.45096282     0.09200
N708        N  0.20788901  0.47636225  0.44471055     0.65600
H709        H  0.25830970  0.46098704  0.44264378     0.18500
N710        N  0.33816529  0.49245280  0.45140254     0.76100
H711        H  0.28697414  0.50782844  0.45402070     0.10000
C712        C  0.21896700  0.51259309  0.47066381     0.03700
C713        C  0.19685427  0.52302179  0.46999759    -0.05000
C714        C  0.17751543  0.52524728  0.45016030    -0.23400
C715        C  0.18021197  0.51664491  0.43073023     0.13000
C716        C  0.20270911  0.50629210  0.43126852    -0.12500
N717        N  0.23718639  0.51047673  0.49165042     0.64600
H718        H  0.19483229  0.52948832  0.48516232     0.12500
N719        N  0.16227066  0.51890830  0.40965361     0.61300
H720        H  0.20555693  0.50011093  0.41580297     0.08600
O721        O  0.35008860  0.49553236  0.47106482    -0.40200
O722        O  0.35163318  0.49642746  0.43276064    -0.39400
O723        O  0.19651028  0.47336623  0.42483283    -0.39400
O724        O  0.19354337  0.47257538  0.46311974    -0.37100
O725        O  0.17416577  0.52603875  0.39365435    -0.38000
O726        O  0.13865466  0.51159640  0.40492022    -0.34100
O727        O  0.25997544  0.51818118  0.49655143    -0.35500
O728        O  0.22574182  0.50320120  0.50761029    -0.39800
C729        C  0.06058867  0.64135003  0.44209012    -0.13500
C730        C  0.03702888  0.63149311  0.44070744     0.16900
C731        C  0.00431802  0.63509650  0.44074701     0.03100
C732        C  0.49616643  0.64793491  0.44451285    -0.12000
C733        C  0.01916544  0.65823078  0.44544400    -0.03100
C734        C  0.05199595  0.65466022  0.44436483     0.02400
C735        C  0.04712735  0.61756554  0.44245849     0.09200
N736        N  0.48079562  0.62491171  0.44230502     0.65600
H737        H  0.47059504  0.65022143  0.44529146     0.18500
N738        N  0.07680642  0.66423168  0.44699781     0.76100
H739        H  0.08591816  0.63861691  0.44230827     0.10000
C740        C  0.04731902  0.60901793  0.42288852     0.03700
C741        C  0.05994520  0.59626459  0.42522743    -0.05000
C742        C  0.07266814  0.59195945  0.44675699    -0.23400
C743        C  0.07110067  0.60031818  0.46655241     0.13000
C744        C  0.05834628  0.61299900  0.46424717    -0.12500
N745        N  0.03668786  0.61337490  0.40027105     0.64600
H746        H  0.06136300  0.58994397  0.40985140     0.12500
N747        N  0.08196729  0.59601195  0.48916303     0.61300
H748        H  0.05774176  0.61943878  0.47949262     0.08600
O749        O  0.09125401  0.66845262  0.42893935    -0.40200
O750        O  0.08893126  0.66612822  0.46707198    -0.39400
O751        O  0.47045466  0.62058785  0.46174199    -0.39400
O752        O  0.46368523  0.62353050  0.42413332    -0.37100
O753        O  0.10886019  0.59989512  0.49672945    -0.38000
O754        O  0.06187044  0.59119321  0.50345851    -0.34100
O755        O  0.05703053  0.61796742  0.38592933    -0.35500
O756        O  0.00973451  0.60958189  0.39268050    -0.39800
C757        C  0.07164647  0.69598638  0.54607772    -0.13500
C758        C  0.05376294  0.69182903  0.56566055     0.16900
C759        C  0.02072533  0.68892634  0.56264003     0.03100
C760        C  0.50556559  0.69200156  0.54138273    -0.12000
C761        C  0.02419289  0.69451681  0.52084796    -0.03100
C762        C  0.05741520  0.69727433  0.52382818     0.02400
C763        C  0.06893392  0.69189845  0.58941912     0.09200
N764        N  0.49989346  0.68765056  0.58332757     0.65600
H765        H  0.48004748  0.68985135  0.53970045     0.18500
N766        N  0.07729933  0.70119490  0.50448626     0.76100
H767        H  0.09686524  0.69856669  0.54813610     0.10000
C768        C  0.09779909  0.68504820  0.59452380     0.03700
C769        C  0.11087365  0.68556934  0.61731435    -0.05000
C770        C  0.09581378  0.69282488  0.63537017    -0.23400
C771        C  0.06770665  0.70012402  0.62979488     0.13000
C772        C  0.05485021  0.69962355  0.60708609    -0.12500
N773        N  0.11354189  0.67716123  0.57708264     0.64600
H774        H  0.13248556  0.67989503  0.62103806     0.12500
N775        N  0.05174920  0.70815843  0.64688353     0.61300
H776        H  0.03356070  0.70546563  0.60318256     0.08600
O777        O  0.09412539  0.69265838  0.49394915    -0.40200
O778        O  0.08364194  0.71322415  0.50163578    -0.39400
O779        O  0.48113956  0.69615699  0.59206502    -0.39400
O780        O  0.49495219  0.67564027  0.58757298    -0.37100
O781        O  0.05765697  0.72032262  0.64748028    -0.38000
O782        O  0.02682043  0.70385610  0.65702106    -0.34100
O783        O  0.13875872  0.68142515  0.56727550    -0.35500
O784        O  0.10717820  0.66505104  0.57588328    -0.39800
C785        C  0.04740169  0.54578899  0.59716330    -0.13500
C786        C  0.04197206  0.55668383  0.58254709     0.16900
C787        C  0.01823318  0.56597214  0.58916725     0.03100
C788        C  0.00052252  0.56414463  0.61002639    -0.12000
C789        C  0.00599582  0.55323070  0.62467603    -0.03100
C790        C  0.02978341  0.54394590  0.61792735     0.02400
C791        C  0.05834164  0.55688829  0.55921314     0.09200
N792        N  0.50664278  0.57533864  0.57505453     0.65600
H793        H  0.47957114  0.57027327  0.61595199     0.18500
N794        N  0.03563918  0.53231882  0.63145066     0.76100
H795        H  0.06510551  0.53841501  0.59205980     0.10000
C796        C  0.08164686  0.56633576  0.55278662     0.03700
C797        C  0.09738562  0.56535464  0.53088898    -0.05000
C798        C  0.09061409  0.55503051  0.51519292    -0.23400
C799        C  0.06791039  0.54541329  0.52205077     0.13000
C800        C  0.05200848  0.54649046  0.54371010    -0.12500
N801        N  0.09054354  0.57668494  0.56847287     0.64600
H802        H  0.11468906  0.57285624  0.52601419     0.12500
N803        N  0.06140489  0.53421435  0.50764465     0.61300
H804        H  0.03472771  0.53898452  0.54864436     0.08600
O805        O  0.06036641  0.53165773  0.64429360    -0.40200
O806        O  0.02074301  0.52189998  0.62637776    -0.39400
O807        O  0.48530620  0.57326878  0.55971917    -0.39400
O808        O  0.51221071  0.58702369  0.58130533    -0.37100
O809        O  0.07680596  0.52368050  0.51123969    -0.38000
O810        O  0.03567796  0.53386008  0.49587060    -0.34100
O811        O  0.11317966  0.57471005  0.58285696    -0.35500
O812        O  0.08289244  0.58836719  0.56337265    -0.39800
C813        C  0.03250657  0.60935695  0.68077026    -0.13500
C814        C  0.05153650  0.61197493  0.70051286     0.16900
C815        C  0.05657999  0.60192239  0.71734481     0.03100
C816        C  0.04194028  0.58959736  0.71430896    -0.12000
C817        C  0.02171715  0.58723229  0.69504573    -0.03100
C818        C  0.01746985  0.59720911  0.67796169     0.02400
C819        C  0.06431467  0.62549391  0.70317908     0.09200
N820        N  0.07444088  0.60431241  0.73837671     0.65600
H821        H  0.04496072  0.58209714  0.72774967     0.18500
N822        N  0.50631519  0.59308798  0.65658420     0.76100
H823        H  0.02880884  0.61693924  0.66755630     0.10000
C824        C  0.09742293  0.62820827  0.70122113     0.03700
C825        C  0.10797465  0.64125257  0.70126494    -0.05000
C826        C  0.08615106  0.65188196  0.70247565    -0.23400
C827        C  0.05289943  0.64913418  0.70407579     0.13000
C828        C  0.04239995  0.63603376  0.70470020    -0.12500
N829        N  0.12045458  0.61795358  0.69727896     0.64600
H830        H  0.13365048  0.64302485  0.69968448     0.12500
N831        N  0.02937815  0.65941681  0.70359198     0.61300
H832        H  0.01674001  0.63405471  0.70549855     0.08600
O833        O  0.52335932  0.58967403  0.63917427    -0.40200
O834        O  0.47765023  0.59679285  0.65318538    -0.39400
O835        O  0.05982073  0.60869774  0.75626088    -0.39400
O836        O  0.10135964  0.59871603  0.74105940    -0.37100
O837        O  0.01545140  0.66277502  0.72245059    -0.38000
O838        O  0.01759954  0.66293206  0.68408852    -0.34100
O839        O  0.12596928  0.61425263  0.67642559    -0.35500
O840        O  0.14091471  0.61541656  0.71305847    -0.39800
C841        C  0.26285259  0.98289454  0.01693525    -0.13500
C842        C  0.25820806  0.98718240  0.04021630     0.16900
C843        C  0.27812220  0.98189539  0.05812376     0.03100
C844        C  0.30132272  0.97232142  0.05246146    -0.12000
C845        C  0.30415829  0.96739775  0.02950489    -0.03100
C846        C  0.28499190  0.97293579  0.01151935     0.02400
C847        C  0.23131198  0.99660082  0.04495214     0.09200
N848        N  0.27291787  0.98494500  0.08240740     0.65600
H849        H  0.31508956  0.96780734  0.06658486     0.18500
N850        N  0.28693792  0.96828400  0.98778845     0.76100
H851        H  0.24815602  0.98696092  0.00288496     0.10000
C852        C  0.23638513  0.00896475  0.05549270     0.03700
C853        C  0.21100308  0.01802198  0.05687950    -0.05000
C854        C  0.18057940  0.01546675  0.04685305    -0.23400
C855        C  0.17521884  0.00292863  0.03697423     0.13000
C856        C  0.20032314  0.99361596  0.03645271    -0.12500
N857        N  0.26777540  0.01312656  0.06256851     0.64600
H858        H  0.21612082  0.02757070  0.06448036     0.12500
N859        N  0.14533347  0.99972530  0.02602948     0.61300
H860        H  0.19598642  0.98414737  0.02827415     0.08600
O861        O  0.26595183  0.96034158  0.98041034    -0.40200
O862        O  0.30375989  0.97455402  0.97305569    -0.39400
O863        O  0.25108805  0.97889417  0.09344930    -0.39400
O864        O  0.29541210  0.99019900  0.09394739    -0.37100
O865        O  0.14265431  0.00091556  0.00398651    -0.38000
O866        O  0.12507381  0.99288301  0.03717302    -0.34100
O867        O  0.28685415  0.01752734  0.04713334    -0.35500
O868        O  0.27259351  0.01597563  0.08391194    -0.39800
C869        C  0.42439771  0.87887437  0.01281879    -0.13500
C870        C  0.40148919  0.86944495  0.00622143     0.16900
C871        C  0.36866241  0.87273423  0.00678596     0.03100
C872        C  0.35924643  0.88539920  0.01324093    -0.12000
C873        C  0.38201335  0.89515891  0.01884857    -0.03100
C874        C  0.41500859  0.89167971  0.01912692     0.02400
C875        C  0.41219881  0.85622701  0.99873241     0.09200
N876        N  0.34469048  0.86356707  0.99942557     0.65600
H877        H  0.33369713  0.88768490  0.01296265     0.18500
N878        N  0.43928843  0.90099568  0.02518616     0.76100
H879        H  0.44980187  0.87630447  0.01279121     0.10000
C880        C  0.43037142  0.85454723  0.97801542     0.03700
C881        C  0.44241001  0.84214593  0.97227417    -0.05000
C882        C  0.43725002  0.83125976  0.98705182    -0.23400
C883        C  0.41798470  0.83281863  0.00740450     0.13000
C884        C  0.40538232  0.84527242  0.01294520    -0.12500
N885        N  0.43744712  0.86540624  0.96288388     0.64600
H886        H  0.45698068  0.84113829  0.95647325     0.12500
N887        N  0.41341601  0.82225615  0.02367110     0.61300
H888        H  0.39153401  0.84653489  0.02902425     0.08600
O889        O  0.45476664  0.90670341  0.00899690    -0.40200
O890        O  0.45020522  0.90113362  0.04591723    -0.39400
O891        O  0.32723183  0.85802645  0.01469238    -0.39400
O892        O  0.33631286  0.86331213  0.97807053    -0.37100
O893        O  0.43298512  0.82082119  0.04046908    -0.38000
O894        O  0.38648330  0.81655860  0.02457042    -0.34100
O895        O  0.46489039  0.87068181  0.96382432    -0.35500
O896        O  0.41967053  0.86758056  0.94529830    -0.39800
C897        C  0.27081343  0.75340889  0.71511137    -0.13500
C898        C  0.23730757  0.75568664  0.71631346     0.16900
C899        C  0.22652781  0.76842580  0.72254394     0.03100
C900        C  0.24883363  0.77835060  0.72711858    -0.12000
C901        C  0.28227111  0.77622612  0.72517183    -0.03100
C902        C  0.29319860  0.76355311  0.71890930     0.02400
C903        C  0.21416397  0.74464946  0.71195256     0.09200
N904        N  0.19301079  0.77169966  0.72349090     0.65600
H905        H  0.23951090  0.78803303  0.73156895     0.18500
N906        N  0.32676040  0.76073658  0.71655198     0.76100
H907        H  0.27988413  0.74360355  0.71143231     0.10000
C908        C  0.21778697  0.73595881  0.69263914     0.03700
C909        C  0.19707226  0.72519784  0.69020738    -0.05000
C910        C  0.17173626  0.72296025  0.70614772    -0.23400
C911        C  0.16707134  0.73193473  0.72479430     0.13000
C912        C  0.18865082  0.74239942  0.72785452    -0.12500
N913        N  0.24200940  0.73797074  0.67505829     0.64600
H914        H  0.20092067  0.71848089  0.67558808     0.12500
N915        N  0.14155714  0.73024253  0.74144298     0.61300
H916        H  0.18586156  0.74857442  0.74329641     0.08600
O917        O  0.33934958  0.76066099  0.69628739    -0.40200
O918        O  0.34158168  0.75543644  0.73347970    -0.39400
O919        O  0.17993935  0.77374286  0.74327334    -0.39400
O920        O  0.17944335  0.77601080  0.70516435    -0.37100
O921        O  0.14726372  0.72467760  0.76087619    -0.38000
O922        O  0.11588735  0.73678469  0.73900961    -0.34100
O923        O  0.26601120  0.73032205  0.67429021    -0.35500
O924        O  0.23532522  0.74483773  0.65719062    -0.39800
C925        C  0.40708824  0.79185336  0.82554414    -0.13500
C926        C  0.39721115  0.80009531  0.84401606     0.16900
C927        C  0.37170442  0.80905359  0.83982390     0.03100
C928        C  0.35704568  0.80965067  0.81747287    -0.12000
C929        C  0.36765758  0.80170311  0.79867066    -0.03100
C930        C  0.39286065  0.79257450  0.80314113     0.02400
C931        C  0.41525432  0.79958502  0.86684631     0.09200
N932        N  0.36207786  0.81835009  0.85737757     0.65600
H933        H  0.33821325  0.81690475  0.81453313     0.18500
N934        N  0.40475081  0.78402950  0.78510812     0.76100
H935        H  0.42660290  0.78489277  0.82843283     0.10000
C936        C  0.40089849  0.79523721  0.88801510     0.03700
C937        C  0.41908733  0.79460581  0.90880985    -0.05000
C938        C  0.45191877  0.79803164  0.90929975    -0.23400
C939        C  0.46659370  0.80198584  0.88789583     0.13000
C940        C  0.44821853  0.80276888  0.86708182    -0.12500
N941        N  0.36833805  0.79074833  0.88860599     0.64600
H942        H  0.40716215  0.79137506  0.92480433     0.12500
N943        N  0.50030748  0.80467491  0.88661349     0.61300
H944        H  0.45990688  0.80578228  0.85085450     0.08600
O945        O  0.39487695  0.77231252  0.78426597    -0.40200
O946        O  0.42995087  0.78714523  0.77396742    -0.39400
O947        O  0.37680244  0.82916463  0.85868809    -0.39400
O948        O  0.33447554  0.81739290  0.86657206    -0.37100
O949        O  0.51937338  0.79558861  0.88051379    -0.38000
O950        O  0.50967907  0.81645667  0.88557580    -0.34100
O951        O  0.36278265  0.77878523  0.88436334    -0.35500
O952        O  0.34763616  0.79734836  0.89988862    -0.39800
C953        C  0.45652662  0.93240239  0.88720351    -0.13500
C954        C  0.42811088  0.93972500  0.89030283     0.16900
C955        C  0.41768903  0.94804657  0.87203945     0.03100
C956        C  0.43490980  0.94854531  0.85084522    -0.12000
C957        C  0.46292873  0.94095221  0.84720420    -0.03100
C958        C  0.47405142  0.93295053  0.86598501     0.02400
C959        C  0.41125550  0.93935394  0.91338462     0.09200
N960        N  0.39020996  0.95638828  0.87494889     0.65600
H961        H  0.42592972  0.95494842  0.83702193     0.18500
N962        N  0.00667406  0.92748870  0.86464729     0.76100
H963        H  0.46524839  0.92622880  0.90145755     0.10000
C964        C  0.38249833  0.93225919  0.91690281     0.03700
C965        C  0.36839221  0.93174139  0.93940495    -0.05000
C966        C  0.38257397  0.93809265  0.95878091    -0.23400
C967        C  0.41118504  0.94540254  0.95494727     0.13000
C968        C  0.42507211  0.94593994  0.93245230    -0.12500
N969        N  0.36816904  0.92499267  0.89813517     0.64600
H970        H  0.34669548  0.92597404  0.94181268     0.12500
N971        N  0.42678089  0.95228243  0.97364176     0.61300
H972        H  0.44714485  0.95145635  0.92989067     0.08600
O973        O  0.00644578  0.91516598  0.86197168    -0.40200
O974        O  0.03189580  0.93295300  0.87215876    -0.39400
O975        O  0.39433596  0.96813722  0.88141052    -0.39400
O976        O  0.36403956  0.95326517  0.86521980    -0.37100
O977        O  0.42187844  0.96446689  0.97604903    -0.38000
O978        O  0.45052156  0.94701340  0.98385000    -0.34100
O979        O  0.37482557  0.91293285  0.89594104    -0.35500
O980        O  0.34338725  0.92953196  0.88815352    -0.39800
C981        C  0.42270392  0.86001844  0.73905286    -0.13500
C982        C  0.40378983  0.86937738  0.75102401     0.16900
C983        C  0.37162362  0.86640310  0.75648857     0.03100
C984        C  0.35929066  0.85410191  0.75078145    -0.12000
C985        C  0.37823528  0.84445583  0.73944390    -0.03100
C986        C  0.41017477  0.84764002  0.73307125     0.02400
C987        C  0.41769619  0.88221155  0.75774146     0.09200
N988        N  0.35143755  0.87560396  0.76863196     0.65600
H989        H  0.33456654  0.85206016  0.75585138     0.18500
N990        N  0.42979491  0.83868367  0.71995994     0.76100
H991        H  0.44731040  0.86239440  0.73413737     0.10000
C992        C  0.44370397  0.88294338  0.77348706     0.03700
C993        C  0.45635513  0.89516715  0.77951808    -0.05000
C994        C  0.44406927  0.90689611  0.76983604    -0.23400
C995        C  0.41768009  0.90616331  0.75422405     0.13000
C996        C  0.40470801  0.89386281  0.74842034    -0.12500
N997        N  0.45762643  0.87135507  0.78351466     0.64600
H998        H  0.47656048  0.89540327  0.79159977     0.12500
N999        N  0.40512504  0.91760819  0.74287678     0.61300
H1000       H  0.38489619  0.89337621  0.73601953     0.08600
O1001       O  0.45153624  0.83224519  0.73039381    -0.40200
O1002       O  0.43040094  0.83951105  0.69777265    -0.39400
O1003       O  0.33057869  0.88201775  0.75722201    -0.39400
O1004       O  0.34937888  0.87505370  0.79079770    -0.37100
O1005       O  0.41447336  0.92029563  0.72227016    -0.38000
O1006       O  0.37939219  0.92271700  0.75050296    -0.34100
O1007       O  0.48368531  0.86692411  0.77514265    -0.35500
O1008       O  0.44846494  0.86759261  0.80362656    -0.39800
C1009       C  0.39220901  0.68309806  0.31221866    -0.13500
C1010       C  0.42263996  0.68795386  0.31824768     0.16900
C1011       C  0.44479272  0.69098114  0.30008163     0.03100
C1012       C  0.43556135  0.68975561  0.27644703    -0.12000
C1013       C  0.40439593  0.68570198  0.27052039    -0.03100
C1014       C  0.38301237  0.68188530  0.28863214     0.02400
C1015       C  0.43129793  0.68901795  0.34354306     0.09200
N1016       N  0.47610535  0.69597048  0.30530677     0.65600
H1017       H  0.45226818  0.69271557  0.26269769     0.18500
N1018       N  0.35240442  0.67623942  0.28330065     0.76100
H1019       H  0.37555682  0.68007817  0.32595532     0.10000
C1020       C  0.41273412  0.69659349  0.35951993     0.03700
C1021       C  0.42097054  0.69691872  0.38347477    -0.05000
C1022       C  0.44781426  0.68997079  0.39173401    -0.23400
C1023       C  0.46595475  0.68219944  0.37588657     0.13000
C1024       C  0.45746296  0.68172206  0.35207782    -0.12500
N1025       N  0.38660959  0.70458295  0.35146748     0.64600
H1026       H  0.40725571  0.70310832  0.39544760     0.12500
N1027       N  0.00196843  0.67883006  0.38147262     0.61300
H1028       H  0.47127116  0.67551278  0.34020119     0.08600
O1029       O  0.32707084  0.68289704  0.28653940    -0.40200
O1030       O  0.35036115  0.66396566  0.28033274    -0.39400
O1031       O  0.50036310  0.68859143  0.30269871    -0.39400
O1032       O  0.48008459  0.70823793  0.30692389    -0.37100
O1033       O  0.00385725  0.66684568  0.38713752    -0.38000
O1034       O  0.02743148  0.68507765  0.37684257    -0.34100
O1035       O  0.35803674  0.70111722  0.35578805    -0.35500
O1036       O  0.39207876  0.71624526  0.34500482    -0.39800
C1037       C  0.18509141  0.56740874  0.34727564    -0.13500
C1038       C  0.16090228  0.56425059  0.33095144     0.16900
C1039       C  0.12995794  0.56110476  0.33939439     0.03100
C1040       C  0.12398431  0.56092094  0.36364458    -0.12000
C1041       C  0.14833039  0.56359377  0.38018273    -0.03100
C1042       C  0.17915216  0.56714641  0.37168817     0.02400
C1043       C  0.16967338  0.56265092  0.30568517     0.09200
N1044       N  0.10485885  0.55713279  0.32378807     0.65600
H1045       H  0.09999327  0.55820413  0.36954044     0.18500
N1046       N  0.20506387  0.56989913  0.38741670     0.76100
H1047       H  0.20917700  0.56969752  0.34098871     0.10000
C1048       C  0.15842062  0.57115393  0.28780475     0.03700
C1049       C  0.16864754  0.56933250  0.26438859    -0.05000
C1050       C  0.19027764  0.55921368  0.25832779    -0.23400
C1051       C  0.20073429  0.55049312  0.27628961     0.13000
C1052       C  0.19045391  0.55232729  0.29956950    -0.12500
N1053       N  0.13801475  0.58208450  0.29322190     0.64600
H1054       H  0.16040783  0.57617568  0.25100361     0.12500
N1055       N  0.22130224  0.53953674  0.27126239     0.61300
H1056       H  0.19886337  0.54559321  0.31309223     0.08600
O1057       O  0.21241377  0.58171111  0.39153073    -0.40200
O1058       O  0.22496601  0.56089894  0.39231826    -0.39400
O1059       O  0.10173024  0.54506359  0.31915973    -0.39400
O1060       O  0.08117768  0.56474222  0.32064248    -0.37100
O1061       O  0.25089279  0.54027952  0.27611390    -0.38000
O1062       O  0.20891792  0.52838271  0.26781068    -0.34100
O1063       O  0.15071289  0.59300279  0.29812256    -0.35500
O1064       O  0.10895773  0.58183096  0.28677653    -0.39800
C1065       C  0.12122246  0.51249812  0.17667948    -0.13500
C1066       C  0.12741044  0.50261696  0.19324188     0.16900
C1067       C  0.15684528  0.50268222  0.20563514     0.03100
C1068       C  0.17861968  0.51297191  0.20225960    -0.12000
C1069       C  0.17165302  0.52328191  0.18664829    -0.03100
C1070       C  0.14303916  0.52275698  0.17317723     0.02400
C1071       C  0.10387832  0.49185883  0.19613637     0.09200
N1072       N  0.16433989  0.49270961  0.22252084     0.65600
H1073       H  0.20037735  0.51318943  0.21278768     0.18500
N1074       N  0.13596679  0.53240298  0.15558622     0.76100
H1075       H  0.09939255  0.51218672  0.16623907     0.10000
C1076       C  0.07168582  0.49423054  0.20316017     0.03700
C1077       C  0.05015992  0.48370516  0.20543367    -0.05000
C1078       C  0.06032282  0.47082833  0.20080786    -0.23400
C1079       C  0.09216509  0.46858165  0.19266372     0.13000
C1080       C  0.11353895  0.47905977  0.19054635    -0.12500
N1081       N  0.06082745  0.50719270  0.20882858     0.64600
H1082       H  0.02579426  0.48555544  0.21157226     0.12500
N1083       N  0.10281918  0.45578913  0.18550460     0.61300
H1084       H  0.13777187  0.47720948  0.18410609     0.08600
O1085       O  0.11487585  0.54107481  0.15972416    -0.40200
O1086       O  0.14477259  0.53035991  0.13459823    -0.39400
O1087       O  0.18500610  0.48402657  0.21741177    -0.39400
O1088       O  0.15662580  0.49445989  0.24381282    -0.37100
O1089       O  0.09961234  0.45239029  0.16425268    -0.38000
O1090       O  0.12192345  0.44943038  0.19853520    -0.34100
O1091       O  0.04328284  0.51333107  0.19437322    -0.35500
O1092       O  0.06234430  0.51111714  0.22988377    -0.39800
C1093       C  0.28545040  0.61187282  0.18366222    -0.13500
C1094       C  0.30070869  0.61495435  0.20492108     0.16900
C1095       C  0.30311133  0.60526901  0.22267101     0.03100
C1096       C  0.29020714  0.59272398  0.21881478    -0.12000
C1097       C  0.27376277  0.58986022  0.19791538    -0.03100
C1098       C  0.27162898  0.59954193  0.18013065     0.02400
C1099       C  0.31261729  0.62853341  0.20803241     0.09200
N1100       N  0.31582734  0.60832035  0.24537809     0.65600
H1101       H  0.29119772  0.58547561  0.23281882     0.18500
N1102       N  0.25545303  0.59704447  0.15838346     0.76100
H1103       H  0.28365227  0.61922192  0.16986094     0.10000
C1104       C  0.34573938  0.63130729  0.20951919     0.03700
C1105       C  0.35607500  0.64434972  0.20923274    -0.05000
C1106       C  0.33414975  0.65485114  0.20698359    -0.23400
C1107       C  0.30091632  0.65208552  0.20592601     0.13000
C1108       C  0.29049407  0.63899484  0.20657913    -0.12500
N1109       N  0.36940707  0.62106381  0.20951126     0.64600
H1110       H  0.38177250  0.64621695  0.21011918     0.12500
N1111       N  0.27764431  0.66230421  0.20266766     0.61300
H1112       H  0.26494252  0.63693724  0.20503113     0.08600
O1113       O  0.27173183  0.59353330  0.14064588    -0.40200
O1114       O  0.22731674  0.60148105  0.15543155    -0.39400
O1115       O  0.29756640  0.61362074  0.26047055    -0.39400
O1116       O  0.34117321  0.60261383  0.25221669    -0.37100
O1117       O  0.26912436  0.66539506  0.18205730    -0.38000
O1118       O  0.26093672  0.66612497  0.21998012    -0.34100
O1119       O  0.38031959  0.61700749  0.19004073    -0.35500
O1120       O  0.38559322  0.61904263  0.22795865    -0.39800
C1121       C  0.17243070  0.67109698  0.85845923    -0.13500
C1122       C  0.17938599  0.68165129  0.84331526     0.16900
C1123       C  0.19289313  0.69318598  0.85269251     0.03100
C1124       C  0.20074854  0.69375668  0.87654272    -0.12000
C1125       C  0.19467836  0.68315058  0.89173918    -0.03100
C1126       C  0.17976328  0.67176790  0.88260975     0.02400
C1127       C  0.17007390  0.68098076  0.81819890     0.09200
N1128       N  0.19739415  0.70465034  0.83849867     0.65600
H1129       H  0.21148898  0.70271156  0.88331035     0.18500
N1130       N  0.17298866  0.66068171  0.89726543     0.76100
H1131       H  0.16129847  0.66228426  0.85145593     0.10000
C1132       C  0.19304177  0.67967102  0.79998244     0.03700
C1133       C  0.18320290  0.68029390  0.77638711    -0.05000
C1134       C  0.15066108  0.68218223  0.77050152    -0.23400
C1135       C  0.12756763  0.68281935  0.78893666     0.13000
C1136       C  0.13751398  0.68227220  0.81244190    -0.12500
N1137       N  0.22631653  0.67750800  0.80512664     0.64600
H1138       H  0.20130937  0.67956091  0.76261330     0.12500
N1139       N  0.09387415  0.68396011  0.78422464     0.61300
H1140       H  0.11964717  0.68310167  0.82637919     0.08600
O1141       O  0.19248499  0.65113085  0.89758699    -0.40200
O1142       O  0.14471739  0.65905810  0.90493927    -0.39400
O1143       O  0.17528973  0.71319441  0.83780627    -0.39400
O1144       O  0.22554066  0.70785636  0.83240129    -0.37100
O1145       O  0.07687283  0.67369941  0.78352716    -0.38000
O1146       O  0.08026934  0.69502885  0.78617944    -0.34100
O1147       O  0.23692428  0.66586673  0.80581265    -0.35500
O1148       O  0.24595442  0.68686768  0.80281661    -0.39800
C1149       C  0.06857974  0.74668429  0.97056168    -0.13500
C1150       C  0.10112696  0.75045777  0.96992746     0.16900
C1151       C  0.10877245  0.76389193  0.96866366     0.03100
C1152       C  0.08420760  0.77324464  0.96771362    -0.12000
C1153       C  0.05151102  0.76962387  0.96832272    -0.03100
C1154       C  0.04375176  0.75612227  0.96989033     0.02400
C1155       C  0.12681223  0.74030579  0.96891755     0.09200
N1156       N  0.14145053  0.76825466  0.96918772     0.65600
H1157       H  0.09107779  0.78352454  0.96706332     0.18500
N1158       N  0.01106365  0.75178272  0.97023367     0.76100
H1159       H  0.06240429  0.73632749  0.97113518     0.10000
C1160       C  0.13073397  0.73096954  0.98702192     0.03700
C1161       C  0.15363830  0.72094491  0.98456007    -0.05000
C1162       C  0.17325761  0.72007993  0.96441227    -0.23400
C1163       C  0.16994205  0.72962860  0.94654148     0.13000
C1164       C  0.14678709  0.73961553  0.94893774    -0.12500
N1165       N  0.11204570  0.73167077  0.00816748     0.64600
H1166       H  0.15599293  0.71369759  0.99851885     0.12500
N1167       N  0.18791420  0.72873520  0.92510243     0.61300
H1168       H  0.14358769  0.74662186  0.93468574     0.08600
O1169       O  0.99848645  0.74831696  0.98951980    -0.40200
O1170       O  0.50622652  0.74872715  0.94595657    -0.39400
O1171       O  0.15422360  0.77262277  0.95057366    -0.39400
O1172       O  0.15434953  0.77073174  0.98879358    -0.37100
O1173       O  0.17592779  0.72271986  0.90778253    -0.38000
O1174       O  0.21117810  0.73647098  0.92171428    -0.34100
O1175       O  0.08936908  0.72362270  0.01136017    -0.35500
O1176       O  0.12264168  0.73813800  0.02544952    -0.39800
C1177       C  0.31130768  0.69615724  0.04939820    -0.13500
C1178       C  0.29409188  0.69141893  0.06889272     0.16900
C1179       C  0.26226849  0.68690606  0.06540191     0.03100
C1180       C  0.24883248  0.68693198  0.04273924    -0.12000
C1181       C  0.26625026  0.69145226  0.02309257    -0.03100
C1182       C  0.29795034  0.69619791  0.02673649     0.02400
C1183       C  0.30917772  0.69197667  0.09274321     0.09200
N1184       N  0.24342570  0.68197966  0.08455452     0.65600
H1185       H  0.22449057  0.68324858  0.04054131     0.18500
N1186       N  0.31724803  0.70096397  0.00769933     0.76100
H1187       H  0.33540155  0.70006326  0.05180337     0.10000
C1188       C  0.33973542  0.68636577  0.09734074     0.03700
C1189       C  0.35363004  0.68759150  0.11972765    -0.05000
C1190       C  0.33775991  0.69426018  0.13811942    -0.23400
C1191       C  0.30736508  0.70007145  0.13332743     0.13000
C1192       C  0.29365779  0.69893849  0.11085126    -0.12500
N1193       N  0.35655975  0.67897028  0.07975155     0.64600
H1194       H  0.37681861  0.68294077  0.12283187     0.12500
N1195       N  0.28983763  0.70711372  0.15099402     0.61300
H1196       H  0.27069672  0.70371374  0.10746727     0.08600
O1197       O  0.33817609  0.69348148  0.99860881    -0.40200
O1198       O  0.31889394  0.71319585  0.00410043    -0.39400
O1199       O  0.22113921  0.68904644  0.09296402    -0.39400
O1200       O  0.24342282  0.66978169  0.08868232    -0.37100
O1201       O  0.29173853  0.71949474  0.15168614    -0.38000
O1202       O  0.26717633  0.70144414  0.16179141    -0.34100
O1203       O  0.38068679  0.68400609  0.06966521    -0.35500
O1204       O  0.35264433  0.66667728  0.07880689    -0.39800
C1205       C  0.43425634  0.57161054  0.79628238    -0.13500
C1206       C  0.43743677  0.56025997  0.81036225     0.16900
C1207       C  0.44286549  0.54803513  0.79931429     0.03100
C1208       C  0.44603523  0.54738007  0.77483226    -0.12000
C1209       C  0.44336998  0.55867540  0.76076112    -0.03100
C1210       C  0.43730281  0.57089788  0.77159943     0.02400
C1211       C  0.43056604  0.56094229  0.83603076     0.09200
N1212       N  0.44371309  0.53607672  0.81254971     0.65600
H1213       H  0.45057396  0.53789454  0.76669386     0.18500
N1214       N  0.43590542  0.58268432  0.75790110     0.76100
H1215       H  0.42944158  0.58103291  0.80451810     0.10000
C1216       C  0.45423186  0.55867708  0.85348397     0.03700
C1217       C  0.44515312  0.55786442  0.87733486    -0.05000
C1218       C  0.41279104  0.55922349  0.88414037    -0.23400
C1219       C  0.38956669  0.56220488  0.86668238     0.13000
C1220       C  0.39863465  0.56299839  0.84300068    -0.12500
N1221       N  0.48752174  0.55739056  0.84741783     0.64600
H1222       H  0.46339579  0.55578750  0.89050325     0.12500
N1223       N  0.35658766  0.56456209  0.87267527     0.61300
H1224       H  0.38030928  0.56490893  0.82979984     0.08600
O1225       O  0.40934545  0.58644260  0.74943573    -0.40200
O1226       O  0.46167966  0.58802455  0.75102668    -0.39400
O1227       O  0.41788289  0.52978751  0.81561767    -0.39400
O1228       O  0.47025112  0.53017513  0.81516550    -0.37100
O1229       O  0.34711773  0.57621445  0.87613204    -0.38000
O1230       O  0.33606710  0.55564503  0.86919286    -0.34100
O1231       O  0.96809888  0.58248662  0.84515294    -0.35500
O1232       O  0.99527201  0.56419204  0.84732168    -0.39800
C1233       C  0.30221029  0.54451205  0.04335228    -0.13500
C1234       C  0.31312047  0.55357044  0.06006228     0.16900
C1235       C  0.34098993  0.56097134  0.05515821     0.03100
C1236       C  0.35708235  0.55934848  0.03356150    -0.12000
C1237       C  0.34588220  0.55043658  0.01651558    -0.03100
C1238       C  0.31812148  0.54288552  0.02176083     0.02400
C1239       C  0.29659843  0.55408528  0.08321762     0.09200
N1240       N  0.35360691  0.56999713  0.07203441     0.65600
H1241       H  0.37810197  0.56533288  0.02994831     0.18500
N1242       N  0.30590333  0.53336268  0.00559982     0.76100
H1243       H  0.28119236  0.53856051  0.04719976     0.10000
C1244       C  0.27467805  0.56418107  0.08924160     0.03700
C1245       C  0.25800450  0.56363758  0.11074781    -0.05000
C1246       C  0.26288039  0.55320963  0.12657835    -0.23400
C1247       C  0.28447225  0.54299531  0.12026231     0.13000
C1248       C  0.30097769  0.54353622  0.09876107    -0.12500
N1249       N  0.26860302  0.57491510  0.07361427     0.64600
H1250       H  0.24161714  0.57159595  0.11529316     0.12500
N1251       N  0.28917857  0.53178517  0.13508654     0.61300
H1252       H  0.31719190  0.53555007  0.09401471     0.08600
O1253       O  0.28137352  0.53614054  0.99346084    -0.40200
O1254       O  0.31433066  0.52148446  0.00776285    -0.39400
O1255       O  0.37605985  0.56628401  0.08544956    -0.39400
O1256       O  0.34849022  0.58214866  0.06937996    -0.37100
O1257       O  0.27226094  0.52165591  0.13185587    -0.38000
O1258       O  0.31448270  0.53092002  0.14727240    -0.34100
O1259       O  0.24437062  0.57444930  0.06027093    -0.35500
O1260       O  0.28137734  0.58591060  0.07780193    -0.39800
C1261       C  0.34443169  0.61231121  0.96322006    -0.13500
C1262       C  0.32024259  0.61512842  0.94686865     0.16900
C1263       C  0.30942921  0.60517848  0.93156993     0.03100
C1264       C  0.32208275  0.59246828  0.93347959    -0.12000
C1265       C  0.34603767  0.58953598  0.95004380    -0.03100
C1266       C  0.35760990  0.59967693  0.96485793     0.02400
C1267       C  0.30494720  0.62821808  0.94747259     0.09200
N1268       N  0.28663488  0.60794736  0.91340421     0.65600
H1269       H  0.31364027  0.58490788  0.92149312     0.18500
N1270       N  0.38180093  0.59725499  0.98222569     0.76100
H1271       H  0.35268105  0.61993560  0.97515660     0.10000
C1272       C  0.27434820  0.62982720  0.95767406     0.03700
C1273       C  0.26086888  0.64232690  0.95930985    -0.05000
C1274       C  0.27742749  0.65356400  0.95140189    -0.23400
C1275       C  0.30859698  0.65197664  0.94167129     0.13000
C1276       C  0.32198947  0.63931078  0.93971114    -0.12500
N1277       N  0.25741243  0.61897174  0.96779651     0.64600
H1278       H  0.23718089  0.64316730  0.96733447     0.12500
N1279       N  0.32719561  0.66301178  0.93416964     0.61300
H1280       H  0.34601884  0.63812883  0.93238287     0.08600
O1281       O  0.37335509  0.59491263  0.00318715    -0.40200
O1282       O  0.41046687  0.60066852  0.97807922    -0.39400
O1283       O  0.29683883  0.61139367  0.89337425    -0.39400
O1284       O  0.25829336  0.60362849  0.91530846    -0.37100
O1285       O  0.34737507  0.66797427  0.94815485    -0.38000
O1286       O  0.32897922  0.66568139  0.91249012    -0.34100
O1287       O  0.26141833  0.61639355  0.98934719    -0.35500
O1288       O  0.23284458  0.61455735  0.95746527    -0.39800
C1289       C  0.42153214  0.17147593  0.85738100    -0.13500
C1290       C  0.42266759  0.18282838  0.87139255     0.16900
C1291       C  0.41873203  0.19523962  0.86066966     0.03100
C1292       C  0.41237169  0.19607403  0.83650054    -0.12000
C1293       C  0.41115670  0.18473992  0.82241082    -0.03100
C1294       C  0.41624362  0.17234449  0.83298660     0.02400
C1295       C  0.43186098  0.18169924  0.89652257     0.09200
N1296       N  0.42157057  0.20708410  0.87405585     0.65600
H1297       H  0.40850368  0.20568147  0.82862365     0.18500
N1298       N  0.41522155  0.16054968  0.81936331     0.76100
H1299       H  0.42538261  0.16190270  0.86537488     0.10000
C1300       C  0.41033534  0.17734124  0.91411777     0.03700
C1301       C  0.42048472  0.17658315  0.93767753    -0.05000
C1302       C  0.45202658  0.18000409  0.94412172    -0.23400
C1303       C  0.47375471  0.18402712  0.92609691     0.13000
C1304       C  0.46338729  0.18487094  0.90274710    -0.12500
N1305       N  0.37789753  0.17397979  0.90848506     0.64600
H1306       H  0.40334441  0.17351061  0.95103581     0.12500
N1307       N  0.00586603  0.17626391  0.92955181     0.61300
H1308       H  0.48023186  0.18806437  0.88925379     0.08600
O1309       O  0.38968118  0.15385880  0.81892772    -0.40200
O1310       O  0.44124908  0.15544328  0.81228297    -0.39400
O1311       O  0.92317709  0.21076873  0.88391022    -0.39400
O1312       O  0.87162288  0.20699115  0.88389842    -0.37100
O1313       O  0.02292883  0.18645451  0.92749242    -0.38000
O1314       O  0.01927030  0.16510615  0.92897572    -0.34100
O1315       O  0.37013317  0.16200812  0.90729225    -0.35500
O1316       O  0.35610281  0.18258413  0.91061889    -0.39800
C1317       C  0.16394510  0.05909188  0.88261551    -0.13500
C1318       C  0.18923083  0.05738887  0.89879356     0.16900
C1319       C  0.22096340  0.05633971  0.89024677     0.03100
C1320       C  0.22675430  0.05676614  0.86602466    -0.12000
C1321       C  0.20152731  0.05789764  0.84958588    -0.03100
C1322       C  0.16973018  0.05936015  0.85818355     0.02400
C1323       C  0.18149231  0.05508150  0.92400831     0.09200
N1324       N  0.24739626  0.05373480  0.90565762     0.65600
H1325       H  0.25150154  0.05569083  0.86006561     0.18500
N1326       N  0.14293343  0.06043657  0.84256786     0.76100
H1327       H  0.13931314  0.05976161  0.88901605     0.10000
C1328       C  0.19031374  0.06390056  0.94207090     0.03700
C1329       C  0.18120168  0.06131735  0.96545813    -0.05000
C1330       C  0.16287307  0.05017551  0.97124577    -0.23400
C1331       C  0.15494776  0.04118458  0.95314912     0.13000
C1332       C  0.16434902  0.04370463  0.92990465    -0.12500
N1333       N  0.20650797  0.07593641  0.93684711     0.64600
H1334       H  0.18716896  0.06844111  0.97899277     0.12500
N1335       N  0.13755182  0.02938158  0.95800873     0.61300
H1336       H  0.15789980  0.03673989  0.91621463     0.08600
O1337       O  0.12718157  0.05023618  0.83745515    -0.40200
O1338       O  0.13035285  0.07158604  0.83909176    -0.39400
O1339       O  0.25483809  0.04193289  0.90998816    -0.39400
O1340       O  0.26820674  0.06257593  0.90880788    -0.37100
O1341       O  0.10771734  0.02897492  0.95386332    -0.38000
O1342       O  0.15289208  0.01876993  0.96092216    -0.34100
O1343       O  0.18995471  0.08597375  0.93176872    -0.35500
O1344       O  0.23519839  0.07742737  0.94360421    -0.39800
C1345       C  0.15995057  0.00053807  0.79574196    -0.13500
C1346       C  0.13782410  0.99905554  0.77717566     0.16900
C1347       C  0.13958512  0.00792106  0.75802497     0.03100
C1348       C  0.16181321  0.01826723  0.75836405    -0.12000
C1349       C  0.18319849  0.02001451  0.77723988    -0.03100
C1350       C  0.18268620  0.01078230  0.79583866     0.02400
C1351       C  0.11187588  0.98886121  0.77881811     0.09200
N1352       N  0.11907213  0.00656681  0.73799082     0.65600
H1353       H  0.16193277  0.02519835  0.74378846     0.18500
N1354       N  0.20323822  0.01221927  0.81580564     0.76100
H1355       H  0.15867150  0.99404766  0.81090039     0.10000
C1356       C  0.11892641  0.97555748  0.78376775     0.03700
C1357       C  0.09396083  0.96639925  0.78582873    -0.05000
C1358       C  0.06138258  0.96996977  0.78284530    -0.23400
C1359       C  0.05421912  0.98333746  0.77826189     0.13000
C1360       C  0.07931810  0.99258437  0.77650425    -0.12500
N1361       N  0.15140182  0.97100047  0.78588004     0.64600
H1362       H  0.10051665  0.95622866  0.78921557     0.12500
N1363       N  0.02176363  0.98778174  0.77561500     0.61300
H1364       H  0.07318610  0.00284082  0.77359569     0.08600
O1365       O  0.22803418  0.00506502  0.81744407    -0.40200
O1366       O  0.19274239  0.01805351  0.83390319    -0.39400
O1367       O  0.09589739  0.01449322  0.73531961    -0.39400
O1368       O  0.12893097  0.00001363  0.72050761    -0.37100
O1369       O  0.00726470  0.99264749  0.79315094    -0.38000
O1370       O  0.01083939  0.98981518  0.75520067    -0.34100
O1371       O  0.16217274  0.96809483  0.80600519    -0.35500
O1372       O  0.16566874  0.96662844  0.76783583    -0.39800
C1373       C  0.31150732  0.10734276  0.78605003    -0.13500
C1374       C  0.28910117  0.11773980  0.78533740     0.16900
C1375       C  0.25604409  0.11480598  0.78686739     0.03100
C1376       C  0.24611071  0.10168737  0.78820386    -0.12000
C1377       C  0.26833428  0.09117903  0.78745157    -0.03100
C1378       C  0.30152663  0.09416628  0.78698056     0.02400
C1379       C  0.30078955  0.13112591  0.77926590     0.09200
N1380       N  0.23204427  0.12485889  0.78494816     0.65600
H1381       H  0.22044120  0.09974054  0.78870647     0.18500
N1382       N  0.32539229  0.08406005  0.78556560     0.76100
H1383       H  0.33704332  0.10946369  0.78465122     0.10000
C1384       C  0.29711248  0.14214581  0.79424712     0.03700
C1385       C  0.31034673  0.15430264  0.78763939    -0.05000
C1386       C  0.32798231  0.15560991  0.76664885    -0.23400
C1387       C  0.33087534  0.14467879  0.75147771     0.13000
C1388       C  0.31710922  0.13266740  0.75778877    -0.12500
N1389       N  0.28239538  0.14099129  0.81693324     0.64600
H1390       H  0.30847060  0.16256597  0.79968969     0.12500
N1391       N  0.34761939  0.14561685  0.72950952     0.61300
H1392       H  0.31970196  0.12434693  0.74592833     0.08600
O1393       O  0.34033807  0.08075070  0.80398007    -0.40200
O1394       O  0.33733891  0.08125751  0.76572495    -0.39400
O1395       O  0.22258259  0.12828326  0.76473338    -0.39400
O1396       O  0.21444947  0.12736328  0.80256189    -0.37100
O1397       O  0.37635515  0.14159611  0.72807310    -0.38000
O1398       O  0.33185557  0.14768188  0.71088433    -0.34100
O1399       O  0.29960551  0.13759693  0.83420929    -0.35500
O1400       O  0.25616700  0.14692793  0.82081700    -0.39800
C1401       C  0.44381350  0.07324516  0.43658890    -0.13500
C1402       C  0.42196877  0.06839802  0.41984550     0.16900
C1403       C  0.39368679  0.06223665  0.42762268     0.03100
C1404       C  0.38760138  0.06096019  0.45163483    -0.12000
C1405       C  0.40945558  0.06548499  0.46873374    -0.03100
C1406       C  0.43781641  0.07188953  0.46094081     0.02400
C1407       C  0.43138241  0.06733865  0.39476160     0.09200
N1408       N  0.37199783  0.05627417  0.41132919     0.65600
H1409       H  0.36562619  0.05596168  0.45678889     0.18500
N1410       N  0.46122744  0.07663603  0.47723335     0.76100
H1411       H  0.46619678  0.07767277  0.43070565     0.10000
C1412       C  0.41928666  0.07578320  0.37711985     0.03700
C1413       C  0.42594086  0.07314127  0.35326161    -0.05000
C1414       C  0.44462430  0.06217770  0.34669100    -0.23400
C1415       C  0.45670556  0.05381339  0.36463172     0.13000
C1416       C  0.45004006  0.05649118  0.38825368    -0.12500
N1417       N  0.40070932  0.08714578  0.38314895     0.64600
H1418       H  0.41681779  0.07978848  0.33986734     0.12500
N1419       N  0.47416730  0.04206221  0.35924758     0.61300
H1420       H  0.45871365  0.04975270  0.40168829     0.08600
O1421       O  0.46159560  0.08872080  0.48230376    -0.40200
O1422       O  0.48574255  0.06968171  0.48159468    -0.39400
O1423       O  0.37524134  0.04421916  0.40653059    -0.39400
O1424       O  0.34573704  0.06196774  0.40663140    -0.37100
O1425       O  0.45957110  0.03121135  0.36009202    -0.38000
O1426       O  0.50451901  0.04213754  0.36042614    -0.34100
O1427       O  0.41431968  0.09821929  0.38387138    -0.35500
O1428       O  0.37038304  0.08662312  0.38215535    -0.39800
C1429       C  0.30081320  0.04766079  0.62852893    -0.13500
C1430       C  0.31091242  0.05643432  0.64604463     0.16900
C1431       C  0.33792041  0.06448766  0.64136261     0.03100
C1432       C  0.35346159  0.06389395  0.61937057    -0.12000
C1433       C  0.34296652  0.05532192  0.60159153    -0.03100
C1434       C  0.31650818  0.04695616  0.60660542     0.02400
C1435       C  0.29506726  0.05608820  0.66974405     0.09200
N1436       N  0.34947617  0.07357449  0.65855176     0.65600
H1437       H  0.37355130  0.07045909  0.61605204     0.18500
N1438       N  0.30597223  0.03729239  0.59008013     0.76100
H1439       H  0.28104643  0.04097755  0.63213751     0.10000
C1440       C  0.26158280  0.05810279  0.67292379     0.03700
C1441       C  0.24778945  0.05718303  0.69555697    -0.05000
C1442       C  0.26654976  0.05402191  0.71535965    -0.23400
C1443       C  0.30003609  0.05178598  0.71194762     0.13000
C1444       C  0.31370744  0.05285426  0.68943669    -0.12500
N1445       N  0.24128679  0.06129472  0.65344359     0.64600
H1446       H  0.22212179  0.05894974  0.69760300     0.12500
N1447       N  0.32089681  0.04865057  0.73114600     0.61300
H1448       H  0.33928348  0.05089571  0.68729106     0.08600
O1449       O  0.28044056  0.03927707  0.57857382    -0.40200
O1450       O  0.31740157  0.02579011  0.59125413    -0.39400
O1451       O  0.37493108  0.07090585  0.66971443    -0.39400
O1452       O  0.33928418  0.08528124  0.65823560    -0.37100
O1453       O  0.32747229  0.03675318  0.73536413    -0.38000
O1454       O  0.33866804  0.05751210  0.73956957    -0.34100
O1455       O  0.22326145  0.05253571  0.64493229    -0.35500
O1456       O  0.23567158  0.07321779  0.64876062    -0.39800
C1457       C  0.16627362  0.17977613  0.41304601    -0.13500
C1458       C  0.18879218  0.18480585  0.39688297     0.16900
C1459       C  0.21671649  0.19092479  0.40555187     0.03100
C1460       C  0.22156177  0.19192774  0.42988894    -0.12000
C1461       C  0.19879125  0.18718569  0.44626253    -0.03100
C1462       C  0.17087298  0.18093486  0.43748941     0.02400
C1463       C  0.18019289  0.18527193  0.37147681     0.09200
N1464       N  0.23931752  0.19703770  0.39002577     0.65600
H1465       H  0.24317256  0.19683311  0.43593531     0.18500
N1466       N  0.14629322  0.17618556  0.45292321     0.76100
H1467       H  0.14433149  0.17528394  0.40658615     0.10000
C1468       C  0.19678784  0.17808434  0.35391116     0.03700
C1469       C  0.18662152  0.17880369  0.33034028    -0.05000
C1470       C  0.15978878  0.18643164  0.32380657    -0.23400
C1471       C  0.14345142  0.19370800  0.34156036     0.13000
C1472       C  0.15388142  0.19307224  0.36493325    -0.12500
N1473       N  0.22293930  0.16952882  0.35974245     0.64600
H1474       H  0.19945391  0.17308827  0.31714204     0.12500
N1475       N  0.11635650  0.20192050  0.33634811     0.61300
H1476       H  0.14105435  0.19871527  0.37825369     0.08600
O1477       O  0.12213767  0.18338518  0.45716711    -0.40200
O1478       O  0.14468846  0.16401813  0.45716246    -0.39400
O1479       O  0.23497597  0.20889891  0.38423840    -0.39400
O1480       O  0.26703002  0.19205166  0.38775793    -0.37100
O1481       O  0.08838067  0.19717966  0.33793114    -0.38000
O1482       O  0.11974797  0.21424729  0.33666223    -0.34100
O1483       O  0.21705324  0.15760748  0.36415062    -0.35500
O1484       O  0.25114455  0.17273808  0.35378327    -0.39800
C1485       C  0.14567121  0.24651576  0.51324949    -0.13500
C1486       C  0.11310784  0.24319517  0.51021766     0.16900
C1487       C  0.10421493  0.22986114  0.51087446     0.03100
C1488       C  0.12770261  0.22015489  0.51430307    -0.12000
C1489       C  0.16052143  0.22332731  0.51660279    -0.03100
C1490       C  0.16939520  0.23675471  0.51637171     0.02400
C1491       C  0.08952258  0.25365227  0.50401509     0.09200
N1492       N  0.07187957  0.22589486  0.50620475     0.65600
H1493       H  0.12018986  0.20994963  0.51399138     0.18500
N1494       N  0.20211054  0.24070529  0.51944247     0.76100
H1495       H  0.15279961  0.25676669  0.51269594     0.10000
C1496       C  0.06548117  0.25802204  0.51984342     0.03700
C1497       C  0.04500635  0.26843923  0.51343040    -0.05000
C1498       C  0.04857248  0.27489056  0.49169175    -0.23400
C1499       C  0.07202595  0.27022138  0.47563039     0.13000
C1500       C  0.09201675  0.25965297  0.48185244    -0.12500
N1501       N  0.06336122  0.25282168  0.54318736     0.64600
H1502       H  0.02773356  0.27210908  0.52625354     0.12500
N1503       N  0.07603715  0.27615339  0.45298647     0.61300
H1504       H  0.11019647  0.25628003  0.46944421     0.08600
O1505       O  0.21140971  0.24427100  0.53960062    -0.40200
O1506       O  0.21857697  0.24386096  0.50160343    -0.39400
O1507       O  0.06401264  0.22316300  0.48531269    -0.39400
O1508       O  0.05470774  0.22169894  0.52295281    -0.37100
O1509       O  0.09830350  0.28440092  0.44988023    -0.38000
O1510       O  0.06279212  0.27096823  0.43530493    -0.34100
O1511       O  0.07845075  0.25848561  0.55955560    -0.35500
O1512       O  0.04042046  0.24523504  0.54837460    -0.39800
C1513       C  0.33368584  0.18571531  0.64939424    -0.13500
C1514       C  0.30577004  0.19346837  0.64773226     0.16900
C1515       C  0.29501602  0.20043532  0.66763758     0.03100
C1516       C  0.31212008  0.19958057  0.68877221    -0.12000
C1517       C  0.33995995  0.19169693  0.69081817    -0.03100
C1518       C  0.35067957  0.18467014  0.67071604     0.02400
C1519       C  0.28770036  0.19400303  0.62527493     0.09200
N1520       N  0.26656478  0.20836273  0.66670613     0.65600
H1521       H  0.30311572  0.20507137  0.70381749     0.18500
N1522       N  0.37791592  0.17607143  0.67177106     0.76100
H1523       H  0.34197397  0.18022362  0.63412320     0.10000
C1524       C  0.29761159  0.20226455  0.60681443     0.03700
C1525       C  0.28038447  0.20248405  0.58570134    -0.05000
C1526       C  0.25339409  0.19435705  0.58210682    -0.23400
C1527       C  0.24358599  0.18597608  0.60073503     0.13000
C1528       C  0.26058264  0.18600195  0.62214478    -0.12500
N1529       N  0.32549649  0.21035865  0.60908636     0.64600
H1530       H  0.28889304  0.20891765  0.57177384     0.12500
N1531       N  0.21740751  0.17701903  0.59804261     0.61300
H1532       H  0.25299469  0.17950242  0.63626971     0.08600
O1533       O  0.40468580  0.17990376  0.66378793    -0.40200
O1534       O  0.37364140  0.16398351  0.67571978    -0.39400
O1535       O  0.24036705  0.20378873  0.67444500    -0.39400
O1536       O  0.26904038  0.22057059  0.66313384    -0.37100
O1537       O  0.22325102  0.16521389  0.59258001    -0.38000
O1538       O  0.19029551  0.17993671  0.60671168    -0.34100
O1539       O  0.35183959  0.20653419  0.60025034    -0.35500
O1540       O  0.32211807  0.22229038  0.61472139    -0.39800
C1541       C  0.29451053  0.10987414  0.51689316    -0.13500
C1542       C  0.31581582  0.12058824  0.51838072     0.16900
C1543       C  0.34801188  0.11815765  0.52500009     0.03100
C1544       C  0.35808752  0.10536187  0.52995526    -0.12000
C1545       C  0.33708574  0.09456275  0.52819363    -0.03100
C1546       C  0.30488153  0.09693483  0.52140645     0.02400
C1547       C  0.30353615  0.13426032  0.51505982     0.09200
N1548       N  0.37119199  0.12851021  0.52626908     0.65600
H1549       H  0.38313121  0.10391990  0.53475598     0.18500
N1550       N  0.28223967  0.08645684  0.51939005     0.76100
H1551       H  0.26936886  0.11156343  0.51271480     0.10000
C1552       C  0.28459863  0.13791629  0.49541191     0.03700
C1553       C  0.27070385  0.15048028  0.49442881    -0.05000
C1554       C  0.27612787  0.15968982  0.51229336    -0.23400
C1555       C  0.29612917  0.15632496  0.53134452     0.13000
C1556       C  0.30909926  0.14363401  0.53278874    -0.12500
N1557       N  0.27914357  0.12903095  0.47634264     0.64600
H1558       H  0.25505565  0.15299145  0.47979494     0.12500
N1559       N  0.30183222  0.16538571  0.55010632     0.61300
H1560       H  0.32255744  0.14095696  0.54842078     0.08600
O1561       O  0.27549471  0.08203230  0.49923110    -0.40200
O1562       O  0.26369882  0.08399797  0.53647765    -0.39400
O1563       O  0.38125754  0.13215915  0.54618661    -0.39400
O1564       O  0.38743266  0.13131787  0.50813896    -0.37100
O1565       O  0.28561148  0.16442909  0.56884865    -0.38000
O1566       O  0.32768738  0.17187545  0.55026662    -0.34100
O1567       O  0.25169293  0.12390089  0.47400003    -0.35500
O1568       O  0.29821983  0.12912009  0.45899650    -0.39800
C1569       C  0.31737586  0.31552696  0.08864131    -0.13500
C1570       C  0.29712163  0.30879667  0.10442824     0.16900
C1571       C  0.27160663  0.30130143  0.09525810     0.03100
C1572       C  0.26752869  0.30027624  0.07087476    -0.12000
C1573       C  0.28814170  0.30671873  0.05488035    -0.03100
C1574       C  0.31306991  0.31464588  0.06411698     0.02400
C1575       C  0.30390891  0.30917170  0.13021352     0.09200
N1576       N  0.25010095  0.29431779  0.11041421     0.65600
H1577       H  0.24790811  0.29422305  0.06446802     0.18500
N1578       N  0.33354340  0.32220189  0.04908550     0.76100
H1579       H  0.33670195  0.32160587  0.09545581     0.10000
C1580       C  0.33372628  0.30473966  0.13891704     0.03700
C1581       C  0.33977578  0.30490613  0.16305025    -0.05000
C1582       C  0.31672932  0.30936202  0.17946109    -0.23400
C1583       C  0.28689391  0.31410697  0.17077258     0.13000
C1584       C  0.28077950  0.31391541  0.14631907    -0.12500
N1585       N  0.35787172  0.29951465  0.12353462     0.64600
H1586       H  0.36309336  0.30132505  0.16891939     0.12500
N1587       N  0.26252242  0.31902876  0.18628001     0.61300
H1588       H  0.25781955  0.31756397  0.13984874     0.08600
O1589       O  0.36198157  0.31829860  0.04531386    -0.40200
O1590       O  0.32630719  0.33403972  0.04487433    -0.39400
O1591       O  0.22231211  0.29894713  0.11417982    -0.39400
O1592       O  0.25561685  0.28236197  0.11488666    -0.37100
O1593       O  0.25995612  0.33129027  0.18927215    -0.38000
O1594       O  0.23912104  0.31171829  0.19167341    -0.34100
O1595       O  0.38250262  0.30631402  0.11899676    -0.35500
O1596       O  0.35854543  0.28729735  0.11963266    -0.39800
C1597       C  0.41195554  0.23459139  0.97821578    -0.13500
C1598       C  0.38849567  0.23834015  0.99484477     0.16900
C1599       C  0.38781558  0.23185559  0.01684515     0.03100
C1600       C  0.41034189  0.22200390  0.02183495    -0.12000
C1601       C  0.43356254  0.21815431  0.00521345    -0.03100
C1602       C  0.43426590  0.22454379  0.98310297     0.02400
C1603       C  0.36495191  0.24896708  0.98910130     0.09200
N1604       N  0.36398669  0.23493456  0.03421352     0.65600
H1605       H  0.40891242  0.21696212  0.03868225     0.18500
N1606       N  0.45503259  0.22007446  0.96462054     0.76100
H1607       H  0.41211593  0.23911876  0.96089420     0.10000
C1608       C  0.37542902  0.26152559  0.98199782     0.03700
C1609       C  0.35307410  0.27166493  0.97887395    -0.05000
C1610       C  0.31989051  0.26973512  0.98268447    -0.23400
C1611       C  0.30911616  0.25689140  0.98801107     0.13000
C1612       C  0.33165166  0.24668038  0.99113147    -0.12500
N1613       N  0.40888249  0.26438932  0.97907042     0.64600
H1614       H  0.36222810  0.28133017  0.97434725     0.12500
N1615       N  0.27559984  0.25396150  0.99004253     0.61300
H1616       H  0.32303257  0.23688966  0.99532322     0.08600
O1617       O  0.47954755  0.22676082  0.95928998    -0.40200
O1618       O  0.94831733  0.21253549  0.94910563    -0.39400
O1619       O  0.34035213  0.22729542  0.03692610    -0.39400
O1620       O  0.37065010  0.24304014  0.05028916    -0.37100
O1621       O  0.26069146  0.24981999  0.97218370    -0.38000
O1622       O  0.26339362  0.25234879  0.01022059    -0.34100
O1623       O  0.42030489  0.26552932  0.95853936    -0.35500
O1624       O  0.42466113  0.26876397  0.99632858    -0.39800
C1625       C  0.08719421  0.43096023  0.06215217    -0.13500
C1626       C  0.05558073  0.42770904  0.06827385     0.16900
C1627       C  0.03293921  0.42537476  0.05026322     0.03100
C1628       C  0.04235531  0.42623043  0.02662957    -0.12000
C1629       C  0.07383617  0.42983981  0.02040016    -0.03100
C1630       C  0.09647549  0.43223726  0.03858119     0.02400
C1631       C  0.04588557  0.42869539  0.09331073     0.09200
N1632       N  0.00009497  0.42246329  0.05566271     0.65600
H1633       H  0.02452614  0.42443152  0.01304795     0.18500
N1634       N  0.12877249  0.43626996  0.03369321     0.76100
H1635       H  0.10451609  0.43324085  0.07585949     0.10000
C1636       C  0.06109395  0.42128567  0.11117098     0.03700
C1637       C  0.05287361  0.42340878  0.13481593    -0.05000
C1638       C  0.02979552  0.43289727  0.14110903    -0.23400
C1639       C  0.01537604  0.44059076  0.12315628     0.13000
C1640       C  0.02345352  0.43837138  0.09961544    -0.12500
N1641       N  0.08461476  0.41147482  0.10558384     0.64600
H1642       H  0.06442938  0.41748252  0.14830951     0.12500
N1643       N  0.99379786  0.45117586  0.12848110     0.61300
H1644       H  0.01288632  0.44462093  0.08614564     0.08600
O1645       O  0.15171079  0.42889472  0.03993504    -0.40200
O1646       O  0.13432033  0.44830759  0.03012012    -0.39400
O1647       O  0.97899286  0.43131537  0.05310871    -0.39400
O1648       O  0.50418816  0.40364414  0.05794696    -0.37100
O1649       O  0.00490006  0.46263759  0.13092235    -0.38000
O1650       O  0.96398646  0.44968634  0.12515838    -0.34100
O1651       O  0.11401996  0.41385055  0.10916459    -0.35500
O1652       O  0.07571340  0.39972656  0.10276702    -0.39800
C1653       C  0.02320160  0.48744853  0.95103442    -0.13500
C1654       C  0.99026864  0.48422561  0.95148500     0.16900
C1655       C  0.98132498  0.47091872  0.94978246     0.03100
C1656       C  0.00502453  0.46119004  0.94798535    -0.12000
C1657       C  0.03806749  0.46429254  0.94819922    -0.03100
C1658       C  0.04707574  0.47764947  0.94963126     0.02400
C1659       C  0.46580205  0.49474730  0.95159127     0.09200
N1660       N  0.44774377  0.46697645  0.94734864     0.65600
H1661       H  0.99725058  0.45102298  0.94718503     0.18500
N1662       N  0.08013776  0.48148548  0.94931936     0.76100
H1663       H  0.03047858  0.49767931  0.95159154     0.10000
C1664       C  0.46685601  0.50371030  0.97051789     0.03700
C1665       C  0.44686342  0.51478906  0.97047284    -0.05000
C1666       C  0.42513613  0.51716856  0.95202569    -0.23400
C1667       C  0.42256512  0.50779358  0.93377849     0.13000
C1668       C  0.44302800  0.49674341  0.93363340    -0.12500
N1669       N  0.98891716  0.50334517  0.99002931     0.64600
H1670       H  0.44877747  0.52174797  0.98489786     0.12500
N1671       N  0.40117261  0.50980066  0.91442932     0.61300
H1672       H  0.44211984  0.49001235  0.91882748     0.08600
O1673       O  0.09372244  0.48456380  0.96839334    -0.40200
O1674       O  0.09311140  0.48465950  0.93001156    -0.39400
O1675       O  0.43432779  0.46341809  0.92847927    -0.39400
O1676       O  0.43469549  0.46419334  0.96682218    -0.37100
O1677       O  0.41145822  0.51534897  0.89600271    -0.38000
O1678       O  0.37510699  0.50346544  0.91367274    -0.34100
O1679       O  0.01275039  0.51101086  0.99069804    -0.35500
O1680       O  0.98078322  0.49724150  0.00846126    -0.39800
C1681       C  0.17213570  0.35174347  0.98512311    -0.13500
C1682       C  0.19100726  0.36211925  0.97635661     0.16900
C1683       C  0.22435706  0.36026308  0.97353219     0.03100
C1684       C  0.23804711  0.34815768  0.97879698    -0.12000
C1685       C  0.21925210  0.33748237  0.98647195    -0.03100
C1686       C  0.18591899  0.33942592  0.99010280     0.02400
C1687       C  0.17613192  0.37496740  0.97080899     0.09200
N1688       N  0.24458447  0.37037799  0.96421690     0.65600
H1689       H  0.26374277  0.34706228  0.97580965     0.18500
N1690       N  0.16584450  0.32916211  0.99897335     0.76100
H1691       H  0.14657555  0.35322369  0.98818983     0.10000
C1692       C  0.15063620  0.37609321  0.95463695     0.03700
C1693       C  0.13774137  0.38846848  0.94961476    -0.05000
C1694       C  0.14965894  0.39990335  0.96045698    -0.23400
C1695       C  0.17546063  0.39874782  0.97643326     0.13000
C1696       C  0.18813576  0.38633109  0.98162556    -0.12500
N1697       N  0.13771942  0.36480938  0.94303059     0.64600
H1698       H  0.11787591  0.38908893  0.93725601     0.12500
N1699       N  0.18771530  0.40986630  0.98877223     0.61300
H1700       H  0.20725758  0.38554144  0.99455936     0.08600
O1701       O  0.14777552  0.32300360  0.98497598    -0.40200
O1702       O  0.16058383  0.32845660  0.02084922    -0.39400
O1703       O  0.26372337  0.37627667  0.97781411    -0.39400
O1704       O  0.24917032  0.37097136  0.94225389    -0.37100
O1705       O  0.18014239  0.41135547  0.01013270    -0.38000
O1706       O  0.21244885  0.41557727  0.98090590    -0.34100
O1707       O  0.11130173  0.36007708  0.95003611    -0.35500
O1708       O  0.14843288  0.36161205  0.92300244    -0.39800
C1709       C  0.04746659  0.32120669  0.64629870    -0.13500
C1710       C  0.05542544  0.31102787  0.63050879     0.16900
C1711       C  0.07060835  0.29962870  0.63950791     0.03100
C1712       C  0.07793972  0.29876147  0.66351121    -0.12000
C1713       C  0.07042362  0.30898682  0.67927520    -0.03100
C1714       C  0.05451899  0.32025908  0.67046342     0.02400
C1715       C  0.04873857  0.31258842  0.60475916     0.09200
N1716       N  0.07855140  0.28874677  0.62461034     0.65600
H1717       H  0.08990962  0.28992465  0.66985373     0.18500
N1718       N  0.04703880  0.33114517  0.68542272     0.76100
H1719       H  0.03656886  0.33020693  0.63971718     0.10000
C1720       C  0.01775946  0.31590847  0.59639587     0.03700
C1721       C  0.01210979  0.31670551  0.57214477    -0.05000
C1722       C  0.03664015  0.31430321  0.55552332    -0.23400
C1723       C  0.06800530  0.31164805  0.56382162     0.13000
C1724       C  0.07374286  0.31086377  0.58821004    -0.12500
N1725       N  0.99135417  0.31801738  0.61218534     0.64600
H1726       H  0.48691637  0.31674377  0.56654703     0.12500
N1727       N  0.09395636  0.30915974  0.54786303     0.61300
H1728       H  0.09803102  0.30880424  0.59425815     0.08600
O1729       O  0.51505761  0.33073311  0.69336517    -0.40200
O1730       O  0.06645191  0.34064625  0.68664197    -0.39400
O1731       O  0.10752948  0.28696033  0.61858456    -0.39400
O1732       O  0.05896841  0.27933028  0.62291183    -0.37100
O1733       O  0.11320091  0.31833737  0.54287902    -0.38000
O1734       O  0.10177493  0.29743392  0.54321743    -0.34100
O1735       O  0.47739652  0.32600419  0.61678573    -0.35500
O1736       O  0.97299910  0.30853582  0.61713966    -0.39800
C1737       C  0.99567809  0.26442806  0.74153874    -0.13500
C1738       C  0.00356284  0.25261308  0.75271081     0.16900
C1739       C  0.03463026  0.25098974  0.76235386     0.03100
C1740       C  0.05716244  0.26131719  0.76104420    -0.12000
C1741       C  0.04888565  0.27332464  0.75030164    -0.03100
C1742       C  0.01798174  0.27467526  0.74007379     0.02400
C1743       C  0.48046043  0.24124407  0.75227084     0.09200
N1744       N  0.54946524  0.23680556  0.75807878     0.65600
H1745       H  0.08071814  0.26008985  0.76895364     0.18500
N1746       N  0.00951069  0.28615048  0.72687745     0.76100
H1747       H  0.97225234  0.26558197  0.73334481     0.10000
C1748       C  0.45786047  0.23935819  0.77052032     0.03700
C1749       C  0.43514746  0.22924179  0.76887991    -0.05000
C1750       C  0.43471813  0.22077216  0.74937577    -0.23400
C1751       C  0.45688790  0.22285181  0.73082677     0.13000
C1752       C  0.47943212  0.23306119  0.73240147    -0.12500
N1753       N  0.94599896  0.25253556  0.78244978     0.64600
H1754       H  0.41860688  0.22764762  0.78345053     0.12500
N1755       N  0.45606708  0.21500387  0.70995473     0.61300
H1756       H  0.49613902  0.23467280  0.71794336     0.08600
O1757       O  0.98995391  0.29436140  0.73555578    -0.40200
O1758       O  0.01550563  0.28648371  0.70507013    -0.39400
O1759       O  0.55948909  0.23039472  0.74047721    -0.39400
O1760       O  0.54503574  0.23095678  0.77743513    -0.37100
O1761       O  0.44107482  0.21921560  0.69214660    -0.38000
O1762       O  0.47599469  0.20569962  0.70752862    -0.34100
O1763       O  0.92817187  0.26196760  0.77611876    -0.35500
O1764       O  0.95294714  0.25119720  0.80395192    -0.39800
C1765       C  0.19680423  0.30459441  0.83290871    -0.13500
C1766       C  0.17925717  0.30317663  0.85385001     0.16900
C1767       C  0.14525297  0.30252254  0.85261073     0.03100
C1768       C  0.12973134  0.30287124  0.83059400    -0.12000
C1769       C  0.14740164  0.30393222  0.80957120    -0.03100
C1770       C  0.18137608  0.30506468  0.81098163     0.02400
C1771       C  0.19726715  0.30271851  0.87655583     0.09200
N1772       N  0.12598024  0.30210386  0.87348108     0.65600
H1773       H  0.10366004  0.30227950  0.82995611     0.18500
N1774       N  0.20054608  0.30745284  0.79047036     0.76100
H1775       H  0.22283812  0.30544814  0.83359855     0.10000
C1776       C  0.19933516  0.29110798  0.89009185     0.03700
C1777       C  0.21724438  0.29096653  0.91098282    -0.05000
C1778       C  0.23398425  0.30212407  0.91875530    -0.23400
C1779       C  0.23282288  0.31365802  0.90483543     0.13000
C1780       C  0.21459123  0.31383414  0.88395750    -0.12500
N1781       N  0.18446029  0.27920144  0.88248695     0.64600
H1782       H  0.21798345  0.28198111  0.92133111     0.12500
N1783       N  0.24831203  0.32547848  0.91227105     0.61300
H1784       H  0.21358178  0.32279834  0.87357098     0.08600
O1785       O  0.21760070  0.29825910  0.78213760    -0.40200
O1786       O  0.20666312  0.31917116  0.78466116    -0.39400
O1787       O  0.11668811  0.31279804  0.88255667    -0.39400
O1788       O  0.11101968  0.29167534  0.87843625    -0.37100
O1789       O  0.27477314  0.32870268  0.90295941    -0.38000
O1790       O  0.23232582  0.33398889  0.92355259    -0.34100
O1791       O  0.20017051  0.27149625  0.86931249    -0.35500
O1792       O  0.16078962  0.27477593  0.89397074    -0.39800
C1793       C  0.32537163  0.43798264  0.61128437    -0.13500
C1794       C  0.30204285  0.43786294  0.59336389     0.16900
C1795       C  0.26932663  0.43688835  0.59971050     0.03100
C1796       C  0.26052125  0.43635121  0.62344289    -0.12000
C1797       C  0.28356196  0.43690853  0.64154367    -0.03100
C1798       C  0.31650438  0.43754557  0.63522045     0.02400
C1799       C  0.31193871  0.43870072  0.56816936     0.09200
N1800       N  0.24453100  0.43711696  0.58229564     0.65600
H1801       H  0.23502053  0.43579355  0.62768278     0.18500
N1802       N  0.34114148  0.43824445  0.65268777     0.76100
H1803       H  0.35075094  0.43850065  0.60665386     0.10000
C1804       C  0.32995392  0.44941743  0.55959797     0.03700
C1805       C  0.33850541  0.44998448  0.53576732    -0.05000
C1806       C  0.32952262  0.44005369  0.51984683    -0.23400
C1807       C  0.31174465  0.42923046  0.52849286     0.13000
C1808       C  0.30317140  0.42867253  0.55243417    -0.12500
N1809       N  0.33894817  0.46002825  0.57469719     0.64600
H1810       H  0.35210294  0.45844039  0.52964721     0.12500
N1811       N  0.30339518  0.41846540  0.51357356     0.61300
H1812       H  0.28991389  0.42020137  0.55888375     0.08600
O1813       O  0.35301302  0.44928411  0.65784911    -0.40200
O1814       O  0.35603006  0.42789405  0.65845806    -0.39400
O1815       O  0.22974115  0.42663587  0.57747049    -0.39400
O1816       O  0.23258526  0.44801310  0.57612028    -0.37100
O1817       O  0.32183018  0.40858109  0.51258090    -0.38000
O1818       O  0.27483449  0.41746940  0.50624642    -0.34100
O1819       O  0.36772583  0.46086746  0.58163913    -0.35500
O1820       O  0.32069072  0.46993658  0.57636013    -0.39800
C1821       C  0.32671987  0.49119860  0.71926141    -0.13500
C1822       C  0.32868792  0.49638139  0.69635991     0.16900
C1823       C  0.30726345  0.49162716  0.67900503     0.03100
C1824       C  0.28562197  0.48152518  0.68468448    -0.12000
C1825       C  0.28576143  0.47561555  0.70702945    -0.03100
C1826       C  0.30600649  0.48078236  0.72461661     0.02400
C1827       C  0.35513814  0.50583938  0.69115672     0.09200
N1828       N  0.30943061  0.49579403  0.65500437     0.65600
H1829       H  0.27074517  0.47742747  0.67079524     0.18500
N1830       N  0.30659337  0.47530632  0.74779736     0.76100
H1831       H  0.34260640  0.49487748  0.73291906     0.10000
C1832       C  0.34932085  0.51872379  0.68301566     0.03700
C1833       C  0.37486681  0.52761925  0.68126773    -0.05000
C1834       C  0.40648176  0.52423821  0.68812502    -0.23400
C1835       C  0.41245203  0.51119112  0.69550086     0.13000
C1836       C  0.38695434  0.50216416  0.69671978    -0.12500
N1837       N  0.31744093  0.52337976  0.67833381     0.64600
H1838       H  0.36929316  0.53755384  0.67555004     0.12500
N1839       N  0.44377332  0.50702074  0.70273739     0.61300
H1840       H  0.39187417  0.49226038  0.70293470     0.08600
O1841       O  0.29036322  0.48075417  0.76391950    -0.40200
O1842       O  0.32883007  0.46739090  0.75328265    -0.39400
O1843       O  0.32996509  0.49036230  0.64173067    -0.39400
O1844       O  0.28558234  0.50154262  0.64579532    -0.37100
O1845       O  0.45058285  0.50696543  0.72439712    -0.38000
O1846       O  0.46102406  0.50047441  0.68861388    -0.34100
O1847       O  0.30087056  0.52790159  0.69517518    -0.35500
O1848       O  0.31020147  0.52665027  0.65754854    -0.39800
C1849       C  0.16060007  0.44503128  0.79873839    -0.13500
C1850       C  0.17604309  0.43855858  0.81735283     0.16900
C1851       C  0.20692697  0.43313145  0.81346715     0.03100
C1852       C  0.22177078  0.43434204  0.79131737    -0.12000
C1853       C  0.20626707  0.44069070  0.77244512    -0.03100
C1854       C  0.17506200  0.44604467  0.77643957     0.02400
C1855       C  0.15925700  0.43753006  0.84050517     0.09200
N1856       N  0.22369918  0.42640442  0.83183505     0.65600
H1857       H  0.24548532  0.43003873  0.78882871     0.18500
N1858       N  0.15715158  0.45225130  0.75803946     0.76100
H1859       H  0.13668230  0.44912183  0.80141087     0.10000
C1860       C  0.15257016  0.44885139  0.85406775     0.03700
C1861       C  0.13691481  0.44768034  0.87581180    -0.05000
C1862       C  0.12686571  0.43541419  0.88427998    -0.23400
C1863       C  0.13207222  0.42412346  0.87033932     0.13000
C1864       C  0.14847592  0.42523034  0.84869350    -0.12500
N1865       N  0.16249181  0.46159697  0.84640658     0.64600
H1866       H  0.13303456  0.45643712  0.88638004     0.12500
N1867       N  0.12229826  0.41144083  0.87850285     0.61300
H1868       H  0.15287096  0.41647669  0.83825963     0.08600
O1869       O  0.15594084  0.46464820  0.75717665    -0.40200
O1870       O  0.13646718  0.44564163  0.74693340    -0.39400
O1871       O  0.22330488  0.41399424  0.83230343    -0.39400
O1872       O  0.24509702  0.43244526  0.84324094    -0.37100
O1873       O  0.13950275  0.40530732  0.89318485    -0.38000
O1874       O  0.09436631  0.40732690  0.87390246    -0.34100
O1875       O  0.14193036  0.46926429  0.83743481    -0.35500
O1876       O  0.18857214  0.46626135  0.85406417    -0.39800
C1877       C  0.15845959  0.36274471  0.73815812    -0.13500
C1878       C  0.17561984  0.36370737  0.71694545     0.16900
C1879       C  0.18258207  0.35209810  0.70419235     0.03100
C1880       C  0.17120228  0.33995593  0.71235579    -0.12000
C1881       C  0.15258250  0.33912463  0.73295501    -0.03100
C1882       C  0.14664985  0.35069312  0.74612650     0.02400
C1883       C  0.18805670  0.37679319  0.70978636     0.09200
N1884       N  0.19996355  0.35250194  0.68244887     0.65600
H1885       H  0.17573937  0.33120582  0.70187884     0.18500
N1886       N  0.12905359  0.35039886  0.76780733     0.76100
H1887       H  0.15440933  0.37144775  0.74885276     0.10000
C1888       C  0.16763539  0.38791897  0.70831218     0.03700
C1889       C  0.18087468  0.40045047  0.70545490    -0.05000
C1890       C  0.21432525  0.40228127  0.70436931    -0.23400
C1891       C  0.23466855  0.39106961  0.70474663     0.13000
C1892       C  0.22137222  0.37852162  0.70744404    -0.12500
N1893       N  0.13343721  0.38673665  0.71040089     0.64600
H1894       H  0.16473691  0.40887963  0.70511080     0.12500
N1895       N  0.26888167  0.39219236  0.70290918     0.61300
H1896       H  0.23745532  0.37011863  0.70894438     0.08600
O1897       O  0.10002187  0.35412809  0.76806800    -0.40200
O1898       O  0.14426220  0.34959520  0.78698091    -0.39400
O1899       O  0.22877882  0.34851079  0.68192702    -0.39400
O1900       O  0.18451655  0.35343828  0.66339930    -0.37100
O1901       O  0.28563571  0.39191456  0.72142815    -0.38000
O1902       O  0.28230501  0.39001835  0.68330928    -0.34100
O1903       O  0.11984615  0.39023539  0.72932206    -0.35500
O1904       O  0.11676326  0.38566396  0.69195112    -0.39800
C1905       C  0.07843590  0.81325595  0.11973348    -0.13500
C1906       C  0.04557117  0.81250872  0.11426631     0.16900
C1907       C  0.02307367  0.81212489  0.13298611     0.03100
C1908       C  0.03371223  0.81228032  0.15648568    -0.12000
C1909       C  0.06669283  0.81249084  0.16204042    -0.03100
C1910       C  0.08917532  0.81313439  0.14320795     0.02400
C1911       C  0.03573644  0.81048959  0.08919944     0.09200
N1912       N  0.49260653  0.80982905  0.12774724     0.65600
H1913       H  0.01592852  0.81175872  0.17050731     0.18500
N1914       N  0.12306109  0.81350947  0.14746434     0.76100
H1915       H  0.09610495  0.81336178  0.10559778     0.10000
C1916       C  0.04266425  0.81972173  0.07126828     0.03700
C1917       C  0.03526926  0.81685261  0.04764924    -0.05000
C1918       C  0.02094771  0.80486403  0.04127475    -0.23400
C1919       C  0.51830775  0.79440096  0.05903575     0.13000
C1920       C  0.02178495  0.79846565  0.08281009    -0.12500
N1921       N  0.05633997  0.83221720  0.07678620     0.64600
H1922       H  0.04011250  0.82421772  0.03427167     0.12500
N1923       N  0.50589649  0.78167685  0.05353139     0.61300
H1924       H  0.01738067  0.79105797  0.09619649     0.08600
O1925       O  0.13752595  0.82439649  0.14652915    -0.40200
O1926       O  0.13919795  0.80298687  0.14620631    -0.39400
O1927       O  0.47896973  0.79881318  0.12988545    -0.39400
O1928       O  0.47561338  0.82013821  0.12715362    -0.37100
O1929       O  0.52531651  0.77234527  0.04962007    -0.38000
O1930       O  0.47679007  0.77911909  0.05800480    -0.34100
O1931       O  0.08570061  0.83424793  0.07232004    -0.35500
O1932       O  0.03787304  0.84190684  0.08033311    -0.39800
C1933       C  0.02819597  0.75293978  0.21474240    -0.13500
C1934       C  0.99491939  0.75556877  0.21609200     0.16900
C1935       C  0.48251935  0.76808519  0.22624394     0.03100
C1936       C  0.00732739  0.77779302  0.22862791    -0.12000
C1937       C  0.04067671  0.77540362  0.22682409    -0.03100
C1938       C  0.05108726  0.76272449  0.21988848     0.02400
C1939       C  0.46655833  0.74554916  0.21246537     0.09200
N1940       N  0.44950402  0.77153165  0.23010084     0.65600
H1941       H  0.99833183  0.78743961  0.23355476     0.18500
N1942       N  0.08453242  0.75946344  0.21862304     0.76100
H1943       H  0.03650805  0.74315691  0.21007433     0.10000
C1944       C  0.46235384  0.73948230  0.19033270     0.03700
C1945       C  0.43982713  0.72934292  0.18782930    -0.05000
C1946       C  0.42095021  0.72516327  0.20696077    -0.23400
C1947       C  0.42479751  0.73136679  0.22899358     0.13000
C1948       C  0.44748700  0.74141954  0.23152953    -0.12500
N1949       N  0.99245282  0.74053604  0.17173477     0.64600
H1950       H  0.43747811  0.72451107  0.17086250     0.12500
N1951       N  0.40832346  0.72672091  0.24948460     0.61300
H1952       H  0.45112229  0.74569440  0.24883858     0.08600
O1953       O  0.09814276  0.75884842  0.19874376    -0.40200
O1954       O  0.09785141  0.75411234  0.23616199    -0.39400
O1955       O  0.43865674  0.77191569  0.25088658    -0.39400
O1956       O  0.43407601  0.77721331  0.21387011    -0.37100
O1957       O  0.42240210  0.71866899  0.26292085    -0.38000
O1958       O  0.38430626  0.73305565  0.25715241    -0.34100
O1959       O  0.01649027  0.73311495  0.16847445    -0.35500
O1960       O  0.98373296  0.74821334  0.15546209    -0.39800
C1961       C  0.26777053  0.94005963  0.16922084    -0.13500
C1962       C  0.28225274  0.92805423  0.16308166     0.16900
C1963       C  0.29073963  0.91920912  0.18131807     0.03100
C1964       C  0.28471981  0.92252443  0.20494920    -0.12000
C1965       C  0.26975851  0.93447061  0.21104555    -0.03100
C1966       C  0.26117089  0.94327223  0.19274913     0.02400
C1967       C  0.29184262  0.92582103  0.13799953     0.09200
N1968       N  0.30451880  0.90663118  0.17614497     0.65600
H1969       H  0.29091188  0.91547133  0.21857904     0.18500
N1970       N  0.24641934  0.95569069  0.19768291     0.76100
H1971       H  0.26229736  0.94723878  0.15565094     0.10000
C1972       C  0.27001919  0.92738182  0.11905542     0.03700
C1973       C  0.28134169  0.92725402  0.09568695    -0.05000
C1974       C  0.31427863  0.92576954  0.09059900    -0.23400
C1975       C  0.33581779  0.92363595  0.10955944     0.13000
C1976       C  0.32447575  0.92372043  0.13281579    -0.12500
N1977       N  0.23637349  0.92935761  0.12319759     0.64600
H1978       H  0.26433075  0.92886699  0.08148395     0.12500
N1979       N  0.36948198  0.92157444  0.10566380     0.61300
H1980       H  0.34176145  0.92277443  0.14702057     0.08600
O1981       O  0.21643074  0.95703478  0.19492218    -0.40200
O1982       O  0.26383175  0.96578297  0.19959915    -0.39400
O1983       O  0.33391019  0.90459375  0.18051560    -0.39400
O1984       O  0.28610742  0.89693181  0.17308716    -0.37100
O1985       O  0.38856435  0.93113787  0.10778124    -0.38000
O1986       O  0.38057195  0.91000279  0.10611227    -0.34100
O1987       O  0.22437929  0.94066487  0.12025598    -0.35500
O1988       O  0.21795605  0.91951266  0.12371769    -0.39800
C1989       C  0.31680099  0.99301432  0.28873075    -0.13500
C1990       C  0.34912467  0.99006458  0.28328478     0.16900
C1991       C  0.35798786  0.97676402  0.27998311     0.03100
C1992       C  0.33458065  0.96693031  0.28127889    -0.12000
C1993       C  0.30198097  0.96996247  0.28537218    -0.03100
C1994       C  0.29319548  0.98318364  0.28935867     0.02400
C1995       C  0.37298454  0.00096082  0.28120500     0.09200
N1996       N  0.39032081  0.97305413  0.27425915     0.65600
H1997       H  0.34194121  0.95683385  0.27809051     0.18500
N1998       N  0.26064588  0.98679803  0.29448348     0.76100
H1999       H  0.30971793  0.00306085  0.29254508     0.10000
C2000       C  0.36644249  0.01221536  0.26741613     0.03700
C2001       C  0.38840183  0.02257078  0.26679145    -0.05000
C2002       C  0.41749706  0.02212397  0.27941020    -0.23400
C2003       C  0.42463874  0.01069745  0.29259730     0.13000
C2004       C  0.40219627  0.00038826  0.29368926    -0.12500
N2005       N  0.33777234  0.01328725  0.25361952     0.64600
H2006       H  0.38237636  0.03111758  0.25619114     0.12500
N2007       N  0.45391430  0.00949775  0.30556182     0.61300
H2008       H  0.40742418  0.99199822  0.30486074     0.08600
O2009       O  0.24335860  0.99162205  0.27836920    -0.40200
O2010       O  0.25182319  0.98797199  0.31567633    -0.39400
O2011       O  0.40747277  0.96755800  0.28976266    -0.39400
O2012       O  0.39845565  0.97211080  0.25288668    -0.37100
O2013       O  0.47746428  0.00352445  0.29633403    -0.38000
O2014       O  0.45329417  0.01106919  0.32759560    -0.34100
O2015       O  0.31559158  0.02096353  0.26029710    -0.35500
O2016       O  0.33829973  0.00946544  0.23247304    -0.39800
C2017       C  0.16584893  0.89301109  0.23517173    -0.13500
C2018       C  0.16422208  0.88281547  0.25178994     0.16900
C2019       C  0.17323718  0.88533576  0.27531257     0.03100
C2020       C  0.18489309  0.89774489  0.28151384    -0.12000
C2021       C  0.18723763  0.90783777  0.26475888    -0.03100
C2022       C  0.17715165  0.90547395  0.24144661     0.02400
C2023       C  0.15472353  0.86948832  0.24397019     0.09200
N2024       N  0.17069094  0.87541827  0.29308356     0.65600
H2025       H  0.19283446  0.89943500  0.29945929     0.18500
N2026       N  0.18122816  0.91516048  0.22344792     0.76100
H2027       H  0.15968828  0.89112154  0.21692542     0.10000
C2028       C  0.12495951  0.86731235  0.23283652     0.03700
C2029       C  0.11623868  0.85458837  0.22646217    -0.05000
C2030       C  0.13639656  0.84377453  0.23114832    -0.23400
C2031       C  0.16722109  0.84603696  0.24066692     0.13000
C2032       C  0.17607970  0.85886092  0.24701037    -0.12500
N2033       N  0.10240674  0.87776925  0.22921254     0.64600
H2034       H  0.09254067  0.85308422  0.21884842     0.12500
N2035       N  0.18910893  0.83544966  0.24503436     0.61300
H2036       H  0.19966417  0.86051006  0.25467950     0.08600
O2037       O  0.15708992  0.92164718  0.21649888    -0.40200
O2038       O  0.20639286  0.91493611  0.21092766    -0.39400
O2039       O  0.19579013  0.86957877  0.30006838    -0.39400
O2040       O  0.14535075  0.87476831  0.30535394    -0.37100
O2041       O  0.21076070  0.83290352  0.23004897    -0.38000
O2042       O  0.19147808  0.83081065  0.26558912    -0.34100
O2043       O  0.09836377  0.88224745  0.20868327    -0.35500
O2044       O  0.08148295  0.88012210  0.24483523    -0.39800
C2045       C  0.28406120  0.80302821  0.58188280    -0.13500
C2046       C  0.28718254  0.81577733  0.59105397     0.16900
C2047       C  0.28827886  0.82646921  0.57505546     0.03100
C2048       C  0.28497281  0.82425793  0.55069887    -0.12000
C2049       C  0.28021096  0.81154611  0.54175370    -0.03100
C2050       C  0.28034757  0.80083618  0.55765707     0.02400
C2051       C  0.29174386  0.81744468  0.61706630     0.09200
N2052       N  0.29112049  0.83969261  0.58327328     0.65600
H2053       H  0.28449203  0.83263524  0.53882440     0.18500
N2054       N  0.27750660  0.78760417  0.54944203     0.76100
H2055       H  0.28490822  0.79461038  0.59363686     0.10000
C2056       C  0.27027712  0.81185613  0.63374728     0.03700
C2057       C  0.27783126  0.81201155  0.65788362    -0.05000
C2058       C  0.30690638  0.81732554  0.66591055    -0.23400
C2059       C  0.32775214  0.82334168  0.64942803     0.13000
C2060       C  0.31995487  0.82342515  0.62536674    -0.12500
N2061       N  0.24125105  0.80554683  0.62645077     0.64600
H2062       H  0.26167289  0.80724957  0.67028401     0.12500
N2063       N  0.35722909  0.82925299  0.65680299     0.61300
H2064       H  0.33701978  0.82759496  0.61295002     0.08600
O2065       O  0.25111541  0.78163406  0.55195730    -0.40200
O2066       O  0.30271237  0.78109065  0.54493150    -0.39400
O2067       O  0.31746631  0.84567174  0.58056146    -0.39400
O2068       O  0.26587455  0.84624097  0.58747349    -0.37100
O2069       O  0.38312627  0.82276510  0.65534462    -0.38000
O2070       O  0.35843308  0.84157038  0.65940462    -0.34100
O2071       O  0.23987896  0.79314327  0.62657456    -0.35500
O2072       O  0.21540811  0.81210621  0.62589284    -0.39800
C2073       C  0.37142038  0.77224427  0.45771964    -0.13500
C2074       C  0.36316473  0.75908365  0.46149595     0.16900
C2075       C  0.33073418  0.75595465  0.46655478     0.03100
C2076       C  0.30737605  0.76592761  0.46758861    -0.12000
C2077       C  0.31557506  0.77916240  0.46407146    -0.03100
C2078       C  0.34827994  0.78226995  0.45914204     0.02400
C2079       C  0.38910425  0.74895764  0.46198932     0.09200
N2080       N  0.32105735  0.74268674  0.47072431     0.65600
H2081       H  0.28263585  0.76325730  0.47154651     0.18500
N2082       N  0.35895477  0.79556017  0.45673174     0.76100
H2083       H  0.39641913  0.77484491  0.45453218     0.10000
C2084       C  0.40913042  0.74647247  0.44229421     0.03700
C2085       C  0.43279448  0.73659023  0.44341790    -0.05000
C2086       C  0.43704950  0.72912718  0.46395710    -0.23400
C2087       C  0.41862518  0.73230278  0.48416502     0.13000
C2088       C  0.39489096  0.74209892  0.48298157    -0.12500
N2089       N  0.40455990  0.75337420  0.42062810     0.64600
H2090       H  0.44652263  0.73420142  0.42767765     0.12500
N2091       N  0.42425248  0.72587724  0.50618503     0.61300
H2092       H  0.38087229  0.74438527  0.49863471     0.08600
O2093       O  0.36479888  0.80007125  0.43645208    -0.40200
O2094       O  0.36975489  0.80149889  0.47455535    -0.39400
O2095       O  0.31589970  0.73895217  0.49160439    -0.39400
O2096       O  0.30981160  0.73604851  0.45388344    -0.37100
O2097       O  0.44372478  0.73095916  0.52056630    -0.38000
O2098       O  0.40439199  0.71742887  0.51349930    -0.34100
O2099       O  0.42374523  0.76247760  0.41509863    -0.35500
O2100       O  0.38670179  0.74845844  0.40500197    -0.39800
C2101       C  0.17765950  0.79468131  0.37874319    -0.13500
C2102       C  0.17647832  0.80620735  0.36511766     0.16900
C2103       C  0.19170596  0.81759571  0.37402311     0.03100
C2104       C  0.20850301  0.81711184  0.39555657    -0.12000
C2105       C  0.20961133  0.80558886  0.40924237    -0.03100
C2106       C  0.19347636  0.79430354  0.40063992     0.02400
C2107       C  0.15910335  0.80609420  0.34190013     0.09200
N2108       N  0.19018413  0.82978350  0.36154194     0.65600
H2109       H  0.21993884  0.82600345  0.40200059     0.18500
N2110       N  0.19302183  0.78230778  0.41376031     0.76100
H2111       H  0.16559124  0.78588262  0.37250885     0.10000
C2112       C  0.16804044  0.79729909  0.32374662     0.03700
C2113       C  0.15127122  0.79723366  0.30232314    -0.05000
C2114       C  0.12520713  0.80577616  0.29802366    -0.23400
C2115       C  0.11551444  0.81433574  0.31650325     0.13000
C2116       C  0.13248412  0.81441579  0.33804266    -0.12500
N2117       N  0.19505001  0.78868499  0.32634401     0.64600
H2118       H  0.15941737  0.79052395  0.28863454     0.12500
N2119       N  0.08891912  0.82314947  0.31372889     0.61300
H2120       H  0.12458336  0.82101083  0.35198333     0.08600
O2121       O  0.21254041  0.77324582  0.40837061    -0.40200
O2122       O  0.16850076  0.77956950  0.42598555    -0.39400
O2123       O  0.17007227  0.83841044  0.36797863    -0.39400
O2124       O  0.21341210  0.83308132  0.34845811    -0.37100
O2125       O  0.06159774  0.81983388  0.32147254    -0.38000
O2126       O  0.09424713  0.83510020  0.30917462    -0.34100
O2127       O  0.19024024  0.77657564  0.32970533    -0.35500
O2128       O  0.22235475  0.79243726  0.31926152    -0.39800
C2129       C  0.01375055  0.93731831  0.66937057    -0.13500
C2130       C  0.03777295  0.92814165  0.66359365     0.16900
C2131       C  0.05397296  0.92158434  0.68212644     0.03100
C2132       C  0.04661404  0.92462866  0.70565184    -0.12000
C2133       C  0.02278671  0.93394225  0.71141908    -0.03100
C2134       C  0.50108686  0.93896072  0.69354257     0.02400
C2135       C  0.04820519  0.92708238  0.63846661     0.09200
N2136       N  0.07745232  0.91159924  0.67745705     0.65600
H2137       H  0.05950282  0.91949451  0.71952478     0.18500
N2138       N  0.47205129  0.94614799  0.69797892     0.76100
H2139       H  0.49485802  0.94067229  0.65622809     0.10000
C2140       C  0.02588827  0.92574826  0.61980490     0.03700
C2141       C  0.03590640  0.92761635  0.59641904    -0.05000
C2142       C  0.06804475  0.93063216  0.59092411    -0.23400
C2143       C  0.09076334  0.93101411  0.60950315     0.13000
C2144       C  0.08058324  0.92945940  0.63287423    -0.12500
N2145       N  0.99293271  0.92251650  0.62423083     0.64600
H2146       H  0.01813681  0.92691845  0.58249200     0.12500
N2147       N  0.12432496  0.93295249  0.60510991     0.61300
H2148       H  0.09809979  0.93071770  0.64682909     0.08600
O2149       O  0.44537301  0.94032898  0.69621485    -0.40200
O2150       O  0.47262526  0.95855389  0.69742157    -0.39400
O2151       O  0.10673682  0.91390234  0.68166092    -0.39400
O2152       O  0.06831701  0.89982169  0.67553914    -0.37100
O2153       O  0.13632676  0.94421555  0.60810298    -0.38000
O2154       O  0.14275227  0.92306643  0.60407191    -0.34100
O2155       O  0.97148497  0.93117302  0.62113549    -0.35500
O2156       O  0.98484394  0.91056661  0.62486024    -0.39800
C2157       C  0.03124885  0.99538447  0.52991392    -0.13500
C2158       C  0.50192639  0.99352900  0.53485640     0.16900
C2159       C  0.49110526  0.98048143  0.53734191     0.03100
C2160       C  0.01070376  0.96952423  0.53535147    -0.12000
C2161       C  0.04304024  0.97185206  0.52926542    -0.03100
C2162       C  0.05345361  0.98499012  0.52681674     0.02400
C2163       C  0.47873665  0.00476809  0.53624364     0.09200
N2164       N  0.45862782  0.97766140  0.54402436     0.65600
H2165       H  0.00221743  0.95952445  0.53777984     0.18500
N2166       N  0.08563341  0.98794137  0.51966593     0.76100
H2167       H  0.03919595  0.00541717  0.52708601     0.10000
C2168       C  0.48328599  0.01540441  0.55180134     0.03700
C2169       C  0.46087554  0.02573196  0.55241937    -0.05000
C2170       C  0.43373220  0.02591471  0.53759849    -0.23400
C2171       C  0.42928578  0.01530884  0.52188120     0.13000
C2172       C  0.45164821  0.00490783  0.52139724    -0.12500
N2173       N  0.51041093  0.01588255  0.56721797     0.64600
H2174       H  0.46503807  0.03379010  0.56456996     0.12500
N2175       N  0.40354477  0.01531328  0.50523001     0.61300
H2176       H  0.44828739  0.99702407  0.50876178     0.08600
O2177       O  0.10535573  0.99217868  0.53471931    -0.40200
O2178       O  0.09173669  0.98942614  0.49803144    -0.39400
O2179       O  0.43942817  0.97315328  0.52885532    -0.39400
O2180       O  0.45170629  0.97660778  0.56560558    -0.37100
O2181       O  0.40814790  0.02017120  0.48503370    -0.38000
O2182       O  0.37969493  0.00787397  0.50858106    -0.34100
O2183       O  0.53362209  0.02337999  0.56221809    -0.35500
O2184       O  0.00101411  0.01040117  0.58943162    -0.39800
C2185       C  0.14129447  0.93206389  0.41937841    -0.13500
C2186       C  0.16142969  0.94272403  0.41408243     0.16900
C2187       C  0.16312342  0.95330290  0.43005021     0.03100
C2188       C  0.14565550  0.95288601  0.45117993    -0.12000
C2189       C  0.12583653  0.94215524  0.45678193    -0.03100
C2190       C  0.12340303  0.93170389  0.44042358     0.02400
C2191       C  0.17815585  0.94314438  0.39092685     0.09200
N2192       N  0.18310841  0.96440586  0.42533852     0.65600
H2193       H  0.14802356  0.96098576  0.46353342     0.18500
N2194       N  0.10416014  0.92039513  0.44532149     0.76100
H2195       H  0.13937923  0.92395634  0.40699665     0.10000
C2196       C  0.20517777  0.93518683  0.38585024     0.03700
C2197       C  0.21847295  0.93513951  0.36304960    -0.05000
C2198       C  0.20504926  0.94277602  0.34482073    -0.23400
C2199       C  0.17807023  0.95086057  0.35022119     0.13000
C2200       C  0.16523604  0.95102397  0.37308285    -0.12500
N2201       N  0.21928494  0.92706564  0.40362231     0.64600
H2202       H  0.23913132  0.92884870  0.35952464     0.12500
N2203       N  0.16275103  0.95875640  0.33267237     0.61300
H2204       H  0.14423125  0.95710400  0.37677535     0.08600
O2205       O  0.11737228  0.91020367  0.45362051    -0.40200
O2206       O  0.07647403  0.91954290  0.43632989    -0.39400
O2207       O  0.17033733  0.97498462  0.41833296    -0.39400
O2208       O  0.21133225  0.96462882  0.43352689    -0.37100
O2209       O  0.13864199  0.95424496  0.32189095    -0.38000
O2210       O  0.16821429  0.97095587  0.33206234    -0.34100
O2211       O  0.21327596  0.91490534  0.40386676    -0.35500
O2212       O  0.24272158  0.93137934  0.41540335    -0.39800
C2213       C  0.16345969  0.85260786  0.51705430    -0.13500
C2214       C  0.16689648  0.86327534  0.50154085     0.16900
C2215       C  0.18089008  0.86125644  0.47927525     0.03100
C2216       C  0.19241307  0.84881518  0.47320431    -0.12000
C2217       C  0.19073699  0.83823121  0.48909714    -0.03100
C2218       C  0.17550149  0.84011491  0.51110428     0.02400
C2219       C  0.15565520  0.87646643  0.50867854     0.09200
N2220       N  0.18411175  0.87181473  0.46280893     0.65600
H2221       H  0.20408097  0.84755048  0.45621426     0.18500
N2222       N  0.17454049  0.82986855  0.52831657     0.76100
H2223       H  0.15252571  0.85412541  0.53422628     0.10000
C2224       C  0.12262462  0.87919442  0.51014790     0.03700
C2225       C  0.11228358  0.89181443  0.51586572    -0.05000
C2226       C  0.13425941  0.90212060  0.51979806    -0.23400
C2227       C  0.16757238  0.89924768  0.51931591     0.13000
C2228       C  0.17797917  0.88645127  0.51364365    -0.12500
N2229       N  0.09920267  0.86944387  0.50443183     0.64600
H2230       H  0.08651209  0.89359003  0.51631808     0.12500
N2231       N  0.19103572  0.90912000  0.52416434     0.61300
H2232       H  0.20358211  0.88431827  0.51284751     0.08600
O2233       O  0.14849269  0.82379964  0.53179731    -0.40200
O2234       O  0.19657132  0.82917447  0.54355704    -0.39400
O2235       O  0.21094157  0.87748937  0.46058730    -0.39400
O2236       O  0.16273429  0.87351046  0.44732768    -0.37100
O2237       O  0.20189110  0.91023009  0.54481696    -0.38000
O2238       O  0.20588412  0.91448845  0.50730077    -0.34100
O2239       O  0.08321530  0.86410533  0.52075652    -0.35500
O2240       O  0.08949543  0.86848395  0.48344987    -0.39800
O2241       O  0.58546857  0.93451342  0.48580656    -0.70900
O2242       O  0.55762633  0.93176582  0.54998333    -0.71200
O2243       O  0.55149523  0.94996073  0.51617662    -0.71000
O2244       O  0.58971377  0.91654776  0.51969973    -0.71000
O2245       O  0.63598470  0.92508649  0.52835844    -0.71000
O2246       O  0.59432551  0.95905668  0.53064497    -0.71000
O2247       O  0.60397474  0.93918726  0.56124862    -0.71000
O2248       O  0.62780518  0.94499603  0.49785039    -0.71100
V2249       V  0.57190637  0.93344254  0.51807961     1.35200
V2250       V  0.61474254  0.94197404  0.52925681     1.35200
C2251       C  0.61210268  0.94000623  0.48107870     0.78300
C2252       C  0.57672972  0.93461165  0.56663715     0.78400
C2253       C  0.56506629  0.96006422  0.52430721     0.78200
C2254       C  0.61922086  0.91494601  0.52390709     0.78200
O2255       O  0.74536680  0.81164670  0.43729028    -0.70900
O2256       O  0.77943237  0.81615725  0.49956132    -0.71200
O2257       O  0.79344635  0.80047013  0.46284030    -0.71000
O2258       O  0.73331880  0.82751428  0.47377232    -0.71000
O2259       O  0.69939202  0.81379858  0.48929753    -0.71000
O2260       O  0.75901547  0.78587495  0.47456373    -0.71000
O2261       O  0.74683206  0.80101765  0.51207756    -0.71000
O2262       O  0.70990136  0.79811716  0.45127451    -0.71100
V2263       V  0.76223344  0.81362231  0.46854664     1.35200
V2264       V  0.72937920  0.79993119  0.48143084     1.35200
C2265       C  0.72087359  0.80442348  0.43383545     0.78300
C2266       C  0.76870314  0.80922832  0.51645359     0.78400
C2267       C  0.78726671  0.78861323  0.46734835     0.78200
C2268       C  0.70680447  0.82555696  0.48399042     0.78200
O2269       O  0.74629515  0.93443218  0.31696379    -0.70900
O2270       O  0.77646681  0.93059813  0.25351485    -0.71200
O2271       O  0.78804840  0.94746982  0.28898224    -0.71000
O2272       O  0.73618548  0.91749153  0.28162203    -0.71000
O2273       O  0.69841231  0.92945845  0.26594191    -0.71000
O2274       O  0.74796141  0.96019799  0.27963839    -0.71000
O2275       O  0.73976377  0.94439558  0.24203846    -0.71000
O2276       O  0.70518361  0.94538699  0.30388412    -0.71100
V2277       V  0.76106042  0.93278342  0.28512250     1.35200
V2278       V  0.72349640  0.94466532  0.27323803     1.35200
C2279       C  0.71976045  0.94024289  0.32111500     0.78300
C2280       C  0.76283305  0.93680416  0.23684412     0.78400
C2281       C  0.77726603  0.95891977  0.28550410     0.78200
C2282       C  0.70943433  0.91820342  0.27129417     0.78200
O2283       O  0.58612364  0.81144492  0.26825382    -0.70900
O2284       O  0.55981623  0.81386508  0.20366475    -0.71200
O2285       O  0.55033256  0.79670513  0.23859965    -0.71000
O2286       O  0.59432247  0.82860580  0.23324900    -0.71000
O2287       O  0.63940286  0.81833449  0.22686839    -0.71000
O2288       O  0.59074785  0.78619150  0.22328011    -0.71000
O2289       O  0.60583356  0.80561815  0.19296319    -0.71000
O2290       O  0.62558377  0.79883924  0.25722414    -0.71100
V2291       V  0.57344500  0.81242820  0.23577281     1.35200
V2292       V  0.61472370  0.80237114  0.22533328     1.35200
C2293       C  0.61077656  0.80470436  0.27372270     0.78300
C2294       C  0.57888161  0.81045568  0.18721158     0.78400
C2295       C  0.56154155  0.78618893  0.23008228     0.78200
C2296       C  0.62434786  0.82907206  0.23020949     0.78200
O2297       O  0.75078236  0.43540545  0.74608319    -0.70900
O2298       O  0.78867174  0.43399700  0.68439858    -0.71200
O2299       O  0.78634459  0.45203121  0.71898422    -0.71000
O2300       O  0.75425589  0.41735101  0.71136464    -0.71000
O2301       O  0.70819745  0.42534493  0.70016451    -0.71000
O2302       O  0.74441616  0.45972250  0.70068234    -0.71000
O2303       O  0.74250551  0.43998231  0.67008353    -0.71000
O2304       O  0.70879863  0.44509084  0.73140566    -0.71100
V2305       V  0.76920313  0.43485891  0.71508220     1.35200
V2306       V  0.72679288  0.44242566  0.70095572     1.35200
C2307       C  0.72301282  0.44043066  0.74922478     0.78300
C2308       C  0.77137448  0.43652279  0.66655668     0.78400
C2309       C  0.77214085  0.46161289  0.70927954     0.78200
C2310       C  0.72556656  0.41542634  0.70489530     0.78200
O2311       O  0.60537137  0.30884416  0.78332891    -0.70900
O2312       O  0.57032280  0.31364024  0.72128335    -0.71200
O2313       O  0.56094714  0.29619783  0.75626116    -0.71000
O2314       O  0.61304030  0.32624786  0.74863293    -0.71000
O2315       O  0.64995835  0.31441198  0.73151672    -0.71000
O2316       O  0.59979781  0.28357420  0.74414415    -0.71000
O2317       O  0.60667815  0.30018673  0.70791787    -0.71000
O2318       O  0.64497583  0.29776192  0.76812498    -0.71100
V2319       V  0.58808858  0.31093689  0.75221536     1.35200
V2320       V  0.62465559  0.29917078  0.73833219     1.35200
C2321       C  0.63246511  0.30316840  0.78597534     0.78300
C2322       C  0.58279831  0.30757228  0.70393392     0.78400
C2323       C  0.57073174  0.28481583  0.75088495     0.78200
C2324       C  0.63967720  0.32560267  0.73803011     0.78200
O2325       O  0.59209133  0.42731736  0.91523885    -0.70900
O2326       O  0.56499918  0.42572948  0.97960153    -0.71200
O2327       O  0.55128876  0.44131682  0.94282435    -0.71000
O2328       O  0.60443032  0.41167952  0.95208732    -0.71000
O2329       O  0.64418392  0.42423513  0.96250379    -0.71000
O2330       O  0.59016471  0.45433655  0.95288024    -0.71000
O2331       O  0.60450719  0.43851201  0.98926094    -0.71000
O2332       O  0.63103038  0.44029170  0.92565669    -0.71100
V2333       V  0.57894007  0.42679577  0.94757420     1.35200
V2334       V  0.61675719  0.43911080  0.95724886     1.35200
C2335       C  0.61655207  0.43407199  0.90964377     0.78300
C2336       C  0.58066688  0.43169566  0.99549443     0.78400
C2337       C  0.56097842  0.45284713  0.94691871     0.78200
C2338       C  0.63292244  0.41279147  0.95938842     0.78200
O2339       O  0.77655766  0.30899151  0.94706912    -0.70900
O2340       O  0.80525820  0.31048953  0.01137158    -0.71200
O2341       O  0.81455081  0.29363598  0.97508762    -0.71000
O2342       O  0.76899534  0.32536159  0.98315933    -0.71000
O2343       O  0.72531041  0.31469701  0.99163661    -0.71000
O2344       O  0.77381582  0.28254847  0.98832204    -0.71000
O2345       O  0.76124816  0.30063159  0.02179295    -0.71000
O2346       O  0.73666179  0.29670220  0.95822160    -0.71100
V2347       V  0.79065241  0.30932424  0.97930577     1.35200
V2348       V  0.75011488  0.29879672  0.98976469     1.35200
C2349       C  0.75086097  0.30289473  0.94197005     0.68700
C2350       C  0.78703239  0.30629230  0.02771040     0.78400
C2351       C  0.80288385  0.28270405  0.98132834     0.78200
C2352       C  0.73939713  0.32557424  0.98811809     0.78200
O2353       O  0.71394011  0.18675874  0.55400079    -0.70900
O2354       O  0.68662902  0.18358938  0.48962913    -0.71200
O2355       O  0.72590677  0.17018094  0.51837888    -0.71000
O2356       O  0.67331001  0.20037408  0.52529131    -0.71000
O2357       O  0.71189565  0.21277865  0.51233615    -0.71000
O2358       O  0.76694614  0.18251228  0.50965859    -0.71000
O2359       O  0.72819032  0.19503226  0.47905034    -0.71000
O2360       O  0.75148132  0.20011961  0.54261604    -0.71100
V2361       V  0.70058967  0.18552174  0.52168784     1.35200
V2362       V  0.73878212  0.19741218  0.51113070     1.35200
C2363       C  0.73820536  0.19376357  0.55909125     0.78300
C2364       C  0.70377856  0.18839979  0.47322162     0.78400
C2365       C  0.75538857  0.17118445  0.51334086     0.78200
C2366       C  0.68293255  0.21167158  0.51920624     0.78200
O2367       O  0.88035609  0.06110567  0.57299767    -0.70900
O2368       O  0.91534455  0.06654379  0.51082327    -0.71200
O2369       O  0.87656518  0.07984947  0.53983956    -0.71000
O2370       O  0.92100813  0.04769810  0.54426732    -0.71000
O2371       O  0.88068307  0.03728792  0.52889171    -0.71000
O2372       O  0.83481392  0.07017381  0.52496560    -0.71000
O2373       O  0.87370704  0.05645259  0.49675024    -0.71000
O2374       O  0.83975503  0.05090561  0.55767846    -0.71100
V2375       V  0.89753945  0.06352529  0.54180755     1.35200
V2376       V  0.85804276  0.05383294  0.52747540     1.35200
C2377       C  0.85336178  0.05540879  0.57580417     0.78300
C2378       C  0.89925829  0.06281990  0.49302726     0.78400
C2379       C  0.84895480  0.08073540  0.53081872     0.78200
C2380       C  0.90929076  0.03706211  0.53681253     0.78200
O2381       O  0.71886427  0.05880427  0.74169705    -0.70900
O2382       O  0.68625808  0.06118490  0.80513629    -0.71200
O2383       O  0.72043983  0.07682006  0.77626600    -0.71000
O2384       O  0.68326436  0.04325305  0.77027767    -0.71000
O2385       O  0.72532646  0.03424977  0.78634929    -0.71000
O2386       O  0.76617622  0.06817026  0.78634445    -0.71000
O2387       O  0.73235222  0.05382202  0.81735322    -0.71000
O2388       O  0.76076955  0.04843901  0.75489743    -0.71100
V2389       V  0.70301877  0.05982319  0.77352031     1.35200
V2390       V  0.74533937  0.05129565  0.78592911     1.35200
C2391       C  0.74580600  0.05325027  0.73756991     0.78300
C2392       C  0.70459503  0.05814779  0.82219940     0.78400
C2393       C  0.74952707  0.07838753  0.78195620     0.78200
C2394       C  0.69695753  0.03311298  0.77829390     0.78200
O2395       O  0.88144450  0.18515064  0.71856525    -0.70900
O2396       O  0.91217356  0.18022377  0.78177771    -0.71200
O2397       O  0.87116363  0.16771455  0.75308440    -0.71000
O2398       O  0.92391470  0.19777688  0.74672851    -0.71000
O2399       O  0.88487076  0.21022131  0.75918970    -0.71000
O2400       O  0.83258741  0.17970266  0.76767684    -0.71000
O2401       O  0.87408562  0.19314357  0.79428977    -0.71000
O2402       O  0.84220010  0.19694687  0.73251916    -0.71100
V2403       V  0.89655056  0.18299601  0.75027924     1.35200
V2404       V  0.85923232  0.19478872  0.76307726     1.35200
C2405       C  0.85567245  0.19159914  0.71498328     0.78300
C2406       C  0.89770619  0.18575902  0.79888567     0.78400
C2407       C  0.84316754  0.16848381  0.76164997     0.78200
C2408       C  0.91365092  0.20913079  0.75186863     0.78200
O2409       O  0.88409103  0.55468110  0.98729146    -0.70900
O2410       O  0.91161552  0.55724558  0.92289088    -0.71200
O2411       O  0.87892468  0.57259547  0.95344195    -0.71000
O2412       O  0.91833458  0.53932652  0.95751037    -0.71000
O2413       O  0.87516657  0.52979223  0.94449733    -0.71000
O2414       O  0.83370464  0.56354084  0.94331858    -0.71000
O2415       O  0.86628634  0.54869314  0.91203343    -0.71000
O2416       O  0.84101670  0.54457044  0.97571318    -0.71100
V2417       V  0.89746425  0.55572150  0.95502421     1.35200
V2418       V  0.85489674  0.54679672  0.94412553     1.35200
C2419       C  0.85715626  0.54949058  0.99232259     0.78300
C2420       C  0.89311133  0.55355956  0.90635534     0.78400
C2421       C  0.84955613  0.57379909  0.94845923     0.78200
C2422       C  0.90414483  0.52893470  0.95140272     0.78200
O2423       O  0.72565306  0.68400509  0.99587954    -0.70900
O2424       O  0.69035333  0.67996688  0.93404467    -0.71200
O2425       O  0.72937165  0.66594170  0.96178472    -0.71000
O2426       O  0.68560527  0.69804573  0.96860581    -0.71000
O2427       O  0.72620968  0.70865801  0.95378321    -0.71000
O2428       O  0.77107941  0.67578163  0.94699100    -0.71000
O2429       O  0.73182077  0.69033209  0.92004096    -0.71000
O2430       O  0.76664132  0.69426569  0.98103111    -0.71100
V2431       V  0.70855366  0.68222340  0.96480654     1.35200
V2432       V  0.74815955  0.69208715  0.95075804     1.35200
C2433       C  0.75252849  0.68966993  0.99895020     0.78300
C2434       C  0.70555899  0.68445962  0.91640673     0.78400
C2435       C  0.75736117  0.66520111  0.95324732     0.78200
C2436       C  0.69798940  0.70881275  0.96242393     0.78200
O2437       O  0.72373714  0.56011956  0.15593281    -0.70900
O2438       O  0.68986353  0.56296932  0.21862877    -0.71200
O2439       O  0.72946854  0.57737081  0.19090003    -0.71000
O2440       O  0.68317471  0.54588921  0.18274301    -0.71000
O2441       O  0.72353466  0.53459704  0.19634008    -0.71000
O2442       O  0.77046972  0.56643091  0.20456680    -0.71000
O2443       O  0.73078710  0.55182945  0.23155851    -0.71000
O2444       O  0.76406847  0.54886395  0.16964602    -0.71100
V2445       V  0.70729527  0.56135845  0.18735434     1.35200
V2446       V  0.74642478  0.55064746  0.20024961     1.35200
C2447       C  0.75010889  0.55410206  0.15227611     0.78300
C2448       C  0.70463969  0.55773254  0.23586526     0.78400
C2449       C  0.75790195  0.57729518  0.19857578     0.78200
C2450       C  0.69510739  0.53490323  0.18826488     0.78200
O2451       O  0.88181601  0.68739502  0.16476438    -0.70900
O2452       O  0.91499594  0.68401850  0.22715196    -0.71200
O2453       O  0.87932330  0.66913869  0.19854847    -0.71000
O2454       O  0.91880669  0.70230779  0.19333933    -0.71000
O2455       O  0.87801195  0.71134560  0.21116667    -0.71000
O2456       O  0.83410072  0.67832537  0.20872745    -0.71000
O2457       O  0.86912513  0.69111806  0.24072191    -0.71000
O2458       O  0.84124887  0.69846168  0.17859382    -0.71100
V2459       V  0.89793299  0.68591746  0.19610985     1.35200
V2460       V  0.85638836  0.69473382  0.20944412     1.35200
C2461       C  0.85533000  0.69330590  0.16109648     0.78300
C2462       C  0.89692839  0.68658598  0.24460148     0.78400
C2463       C  0.85009155  0.66797566  0.20427409     0.78200
C2464       C  0.90638862  0.71229603  0.20295812     0.78200
O2465       O  0.00446633  0.93486453  0.81752783    -0.70900
O2466       O  0.52963114  0.93152514  0.75365996    -0.71200
O2467       O  0.54361659  0.94784235  0.78944872    -0.71000
O2468       O  0.99156013  0.91838405  0.78208796    -0.71000
O2469       O  0.95215689  0.93074064  0.77024675    -0.71000
O2470       O  0.00743128  0.96085202  0.77743939    -0.71000
O2471       O  0.99229970  0.94408741  0.74237114    -0.71000
O2472       O  0.96556163  0.94753548  0.80588457    -0.71100
V2473       V  0.51591863  0.93334989  0.78562444     1.35200
V2474       V  0.98009685  0.94563634  0.77438199     1.35200
C2475       C  0.97936759  0.94146143  0.82251997     0.78300
C2476       C  0.51349425  0.93692721  0.73731731     0.78400
C2477       C  0.53423324  0.95933740  0.78450232     0.78200
C2478       C  0.96329230  0.91929722  0.77420643     0.78200
O2479       O  0.82975986  0.80994914  0.76944700    -0.70900
O2480       O  0.80049426  0.81704261  0.70663440    -0.71200
O2481       O  0.79353081  0.79725695  0.73714298    -0.71000
O2482       O  0.83513061  0.82991181  0.73902137    -0.71000
O2483       O  0.88025611  0.82109827  0.72780227    -0.71000
O2484       O  0.83515490  0.78825280  0.72035852    -0.71000
O2485       O  0.84612975  0.80965066  0.69319406    -0.71000
O2486       O  0.87099888  0.79958926  0.75495760    -0.71100
V2487       V  0.81561378  0.81334118  0.73783966     1.35200
V2488       V  0.85737164  0.80475790  0.72436107     1.35200
C2489       C  0.85569918  0.80355890  0.77288930     0.78300
C2490       C  0.81894187  0.81477255  0.68923101     0.78400
C2491       C  0.80602045  0.78740428  0.72719498     0.78200
C2492       C  0.86466960  0.83121553  0.73451516     0.78200
O2493       O  0.84354300  0.93197204  0.98582119    -0.70900
O2494       O  0.80984709  0.92771043  0.04838875    -0.71200
O2495       O  0.80918556  0.94694725  0.01563351    -0.71000
O2496       O  0.84287768  0.91266387  0.01789004    -0.71000
O2497       O  0.88966518  0.92000145  0.02836508    -0.71000
O2498       O  0.85122900  0.95426622  0.03414115    -0.71000
O2499       O  0.85669043  0.93301941  0.06217653    -0.71000
O2500       O  0.88557802  0.94143494  0.00063435    -0.71100
V2501       V  0.82718137  0.92995913  0.01721196     1.35200
V2502       V  0.87002873  0.93708316  0.03107715     1.35200
C2503       C  0.87038867  0.93767567  0.98261953     0.78300
C2504       C  0.82818431  0.92930150  0.06606142     0.78400
C2505       C  0.82359151  0.95636201  0.02532855     0.78200
C2506       C  0.87209408  0.91038118  0.02232302     0.78200
O2507       O  0.99368732  0.80458864  0.93595314    -0.70900
O2508       O  0.52647959  0.80813793  0.99935814    -0.71200
O2509       O  0.53905821  0.79191047  0.96326698    -0.71000
O2510       O  0.98273897  0.82138925  0.97143415    -0.71000
O2511       O  0.94520812  0.80915473  0.98655385    -0.71000
O2512       O  0.99820489  0.77884879  0.97498580    -0.71000
O2513       O  0.98780499  0.79511033  0.01158122    -0.71000
O2514       O  0.95425787  0.79284641  0.94948453    -0.71100
V2515       V  0.51017804  0.80590624  0.96804379     1.35200
V2516       V  0.97203456  0.79417726  0.98024487     1.35200
C2517       C  0.96760683  0.79847967  0.93212055     0.78300
C2518       C  0.01095152  0.80268955  0.01632079     0.78400
C2519       C  0.53093434  0.78028498  0.96813371     0.78200
C2520       C  0.95550406  0.82049453  0.98112170     0.78200
O2521       O  0.96437298  0.55907953  0.65261133    -0.70900
O2522       O  0.93413047  0.56185021  0.71643620    -0.71200
O2523       O  0.97356576  0.57567362  0.68796665    -0.71000
O2524       O  0.92316381  0.54528139  0.68024532    -0.71000
O2525       O  0.96195655  0.53288218  0.69298580    -0.71000
O2526       O  0.51522817  0.56358453  0.70152133    -0.71000
O2527       O  0.47495023  0.55024159  0.72992850    -0.71000
O2528       O  0.50241225  0.54630188  0.66719462    -0.71100
V2529       V  0.94945728  0.56017132  0.68453675     1.35200
V2530       V  0.48738374  0.54858104  0.69826209     1.35200
C2531       C  0.48928071  0.55247156  0.65053521     0.78300
C2532       C  0.95023331  0.55654324  0.73294214     0.78400
C2533       C  0.50439021  0.57489101  0.69602593     0.78200
C2534       C  0.93313228  0.53394666  0.68572046     0.78200
O2535       O  0.63420108  0.68628023  0.66489315    -0.70900
O2536       O  0.65969482  0.68059321  0.72882828    -0.71200
O2537       O  0.62658932  0.66709428  0.69662621    -0.71000
O2538       O  0.66878188  0.69969418  0.69687773    -0.71000
O2539       O  0.62590930  0.70940454  0.71026808    -0.71000
O2540       O  0.58177018  0.67615344  0.70783332    -0.71000
O2541       O  0.61491281  0.68951149  0.74049362    -0.71000
O2542       O  0.59125535  0.69627101  0.67744508    -0.71100
V2543       V  0.64644221  0.68362942  0.69702429     1.35200
V2544       V  0.60426037  0.69269398  0.70871544     1.35200
C2545       C  0.60796049  0.69218276  0.66033079     0.78300
C2546       C  0.64115485  0.68395430  0.74561658     0.78400
C2547       C  0.59735985  0.66583842  0.70218394     0.78200
C2548       C  0.65531281  0.71007973  0.70406005     0.78200
O2549       O  0.63017779  0.56092361  0.48872949    -0.70900
O2550       O  0.65778398  0.56503192  0.42449527    -0.71200
O2551       O  0.62161465  0.57904581  0.45540660    -0.71000
O2552       O  0.66732494  0.54686672  0.45853271    -0.71000
O2553       O  0.62596561  0.53631198  0.44490978    -0.71000
O2554       O  0.57841838  0.56861841  0.44474341    -0.71000
O2555       O  0.61403756  0.55528376  0.41337954    -0.71000
O2556       O  0.58924479  0.54956310  0.47663570    -0.71100
V2557       V  0.64351368  0.56272272  0.45655936     1.35200
V2558       V  0.60276532  0.55262971  0.44519792     1.35200
C2559       C  0.60443474  0.55475006  0.49346406     0.78300
C2560       C  0.63998138  0.56096426  0.40785592     0.78400
C2561       C  0.59217976  0.57933069  0.44998645     0.78200
C2562       C  0.65498051  0.53617639  0.45178743     0.78200
O2563       O  0.98069725  0.69002813  0.49418088    -0.70900
O2564       O  0.94332648  0.68958437  0.43268164    -0.71200
O2565       O  0.97936524  0.67324818  0.45797565    -0.71000
O2566       O  0.94282363  0.70651363  0.46951779    -0.71000
O2567       O  0.98330836  0.71598831  0.45222171    -0.71000
O2568       O  0.52357938  0.68183156  0.44703706    -0.71000
O2569       O  0.98831757  0.69719810  0.41865573    -0.71000
O2570       O  0.52123338  0.70074880  0.48034956    -0.71100
V2571       V  0.96235483  0.69008721  0.46338714     1.35200
V2572       V  0.50280109  0.69864432  0.45009564     1.35200
C2573       C  0.50777513  0.69555906  0.49799888     0.78300
C2574       C  0.96076122  0.69247341  0.41503450     0.78400
C2575       C  0.50720324  0.67155602  0.45116780     0.78200
C2576       C  0.95579927  0.71689087  0.46205424     0.78200
O2577       O  0.85593342  0.43919897  0.41528245    -0.70900
O2578       O  0.82619352  0.43497860  0.47872851    -0.71200
O2579       O  0.81221855  0.45159727  0.44322606    -0.71000
O2580       O  0.86876164  0.42274385  0.45048190    -0.71000
O2581       O  0.90537472  0.43566845  0.46488453    -0.71000
O2582       O  0.84970970  0.46516406  0.45374728    -0.71000
O2583       O  0.86192794  0.44908196  0.49025047    -0.71000
O2584       O  0.89432642  0.45165860  0.42816720    -0.71100
V2585       V  0.84138244  0.43745171  0.44711963     1.35200
V2586       V  0.87711451  0.45018806  0.45891356     1.35200
C2587       C  0.88161538  0.44552194  0.41122347     0.78300
C2588       C  0.83932545  0.44129811  0.49538938     0.78400
C2589       C  0.82074148  0.46327053  0.44758055     0.78200
C2590       C  0.89631051  0.42418855  0.45935512     0.78200
O2591       O  0.01317898  0.31343244  0.44953602    -0.70900
O2592       O  0.54670752  0.31532034  0.51320895    -0.71200
O2593       O  0.54710567  0.29677754  0.47923610    -0.71000
O2594       O  0.01440863  0.33189497  0.48382399    -0.71000
O2595       O  0.96728920  0.32431659  0.49323820    -0.71000
O2596       O  0.00373731  0.28974686  0.49621169    -0.71000
O2597       O  0.99862038  0.31008130  0.52565999    -0.71000
O2598       O  0.97073297  0.30384896  0.46364534    -0.71100
V2599       V  0.53005822  0.31406907  0.48150733     1.35200
V2600       V  0.98594244  0.30710402  0.49434531     1.35200
C2601       C  0.98571462  0.30827012  0.44597784     0.78300
C2602       C  0.02719862  0.31330925  0.53027867     0.78400
C2603       C  0.53209138  0.28741709  0.48886788     0.78200
C2604       C  0.98524197  0.33409599  0.48882009     0.78200
O2605       O  0.01534609  0.43676729  0.24690902    -0.70900
O2606       O  0.53955983  0.42989446  0.18305182    -0.71200
O2607       O  0.55458717  0.44910430  0.21262084    -0.71000
O2608       O  0.00531954  0.41775392  0.21547121    -0.71000
O2609       O  0.96091367  0.42749809  0.20536290    -0.71000
O2610       O  0.00892211  0.45976860  0.20097052    -0.71000
O2611       O  0.99485265  0.44020573  0.17165291    -0.71000
O2612       O  0.97343504  0.44762960  0.23493941    -0.71100
V2613       V  0.52959110  0.43384738  0.21516468     1.35200
V2614       V  0.98525997  0.44361802  0.20354359     1.35200
C2615       C  0.98982421  0.44313572  0.25182123     0.78300
C2616       C  0.52034490  0.43355096  0.16694903     0.78400
C2617       C  0.54227030  0.45943182  0.20437391     0.78200
C2618       C  0.97580182  0.41696871  0.21076111     0.78200
O2619       O  0.84565706  0.31156727  0.28343847    -0.70900
O2620       O  0.81549902  0.31395902  0.21963916    -0.71200
O2621       O  0.80468368  0.29763295  0.25641532    -0.71000
O2622       O  0.85537690  0.32786585  0.24703695    -0.71000
O2623       O  0.89505486  0.31579503  0.23424991    -0.71000
O2624       O  0.84449068  0.28502258  0.24602361    -0.71000
O2625       O  0.85477399  0.30112373  0.20911224    -0.71000
O2626       O  0.88587950  0.29954535  0.27162422    -0.71100
V2627       V  0.83101760  0.31246650  0.25147614     1.35200
V2628       V  0.86927848  0.30059236  0.24053267     1.35200
C2629       C  0.87133206  0.30530604  0.28826693     0.78300
C2630       C  0.83084059  0.30810986  0.20332156     0.78400
C2631       C  0.81547841  0.28618206  0.25277100     0.78200
C2632       C  0.88337658  0.32708499  0.23853205     0.78200
O2633       O  0.62419479  0.05266000  0.07308028    -0.70900
O2634       O  0.65874746  0.05552455  0.01088176    -0.71200
O2635       O  0.61733178  0.06911832  0.03716780    -0.71000
O2636       O  0.66731299  0.03908911  0.04711546    -0.71000
O2637       O  0.62961557  0.02651939  0.03355907    -0.71000
O2638       O  0.57762897  0.05753837  0.02370077    -0.71000
O2639       O  0.61978467  0.04337159  0.99786840    -0.71000
O2640       O  0.58568092  0.04043253  0.05970706    -0.71100
V2641       V  0.64110537  0.05378366  0.04184339     1.35200
V2642       V  0.60383956  0.04212886  0.02905497     1.35200
C2643       C  0.59820576  0.04646256  0.07684154     0.78300
C2644       C  0.64475942  0.05002572  0.99368175     0.78400
C2645       C  0.58938051  0.06871516  0.02875994     0.78200
C2646       C  0.65820072  0.02776610  0.04124742     0.78200
O2647       O  0.97303262  0.18157537  0.05026638    -0.70900
O2648       O  0.94220244  0.17655577  0.98714963    -0.71200
O2649       O  0.47062049  0.16209281  0.01747547    -0.71000
O2650       O  0.93892120  0.19610315  0.01858606    -0.71000
O2651       O  0.98165943  0.20376223  0.00132226    -0.71000
O2652       O  0.51809172  0.16976735  0.00943745    -0.71000
O2653       O  0.48932835  0.18356707  0.97519762    -0.71000
O2654       O  0.51147249  0.19053488  0.03831152    -0.71100
V2655       V  0.95802950  0.17922114  0.01849716     1.35200
V2656       V  0.49912405  0.18686710  0.00696869     1.35200
C2657       C  0.49513019  0.18624196  0.05547289     0.78300
C2658       C  0.96074632  0.17869597  0.96972015     0.78400
C2659       C  0.50005691  0.15998163  0.01371388     0.78200
C2660       C  0.95292707  0.20551844  0.00834345     0.78200
O2661       O  0.95867523  0.05762754  0.23979057    -0.70900
O2662       O  0.93508433  0.06495716  0.30388945    -0.71200
O2663       O  0.97063953  0.07689711  0.27011787    -0.71000
O2664       O  0.92192434  0.04574291  0.27292089    -0.71000
O2665       O  0.96320847  0.03470557  0.28555293    -0.71000
O2666       O  0.51351695  0.06696932  0.28423904    -0.71000
O2667       O  0.97735915  0.05420341  0.31554466    -0.71000
O2668       O  0.50389957  0.04744954  0.25384427    -0.71100
V2669       V  0.94731634  0.06105675  0.27197101     1.35200
V2670       V  0.98760269  0.05066154  0.28366717     1.35200
C2671       C  0.98413590  0.05113745  0.23526011     0.78300
C2672       C  0.95230705  0.06065584  0.32070815     0.78400
C2673       C  0.49963530  0.07735245  0.27697093     0.78200
C2674       C  0.93370331  0.03494837  0.27981532     0.78200
O2675       O  0.58329009  0.17788987  0.26644129    -0.70900
O2676       O  0.62990771  0.21025998  0.26135112    -0.71200
O2677       O  0.59232217  0.19566735  0.23189477    -0.71000
O2678       O  0.61954511  0.19258538  0.29522333    -0.71000
O2679       O  0.66302725  0.18255988  0.28383526    -0.71000
O2680       O  0.63328154  0.18421615  0.21985291    -0.71000
O2681       O  0.67108148  0.19935238  0.24790235    -0.71000
O2682       O  0.62669472  0.16745574  0.25582858    -0.71100
V2683       V  0.60704659  0.19393659  0.26335792     1.35200
V2684       V  0.64772966  0.18363832  0.25205081     1.35200
C2685       C  0.59763078  0.16710609  0.26225542     0.78300
C2686       C  0.65897907  0.21015854  0.25439766     0.78400
C2687       C  0.60692318  0.18999986  0.21509918     0.78200
C2688       C  0.64597497  0.18722021  0.30050242     0.78200
C2689       C  0.52456781  0.11072286  0.25373586    -0.13500
C2690       C  0.54627650  0.11475938  0.27103416     0.16900
C2691       C  0.55368169  0.10623276  0.28987111     0.03100
C2692       C  0.53920644  0.09382150  0.29112047    -0.12000
C2693       C  0.51678560  0.08991578  0.27413654    -0.03100
C2694       C  0.01202640  0.09810510  0.25344729     0.02400
C2695       C  0.55988305  0.12810295  0.26926134     0.09200
N2696       N  0.57563302  0.11006530  0.30790201     0.65600
H2697       H  0.54473135  0.08738532  0.30584602     0.18500
N2698       N  0.98956537  0.09495362  0.23527023     0.76100
H2699       H  0.02230679  0.11696983  0.23817649     0.10000
C2700       C  0.58168751  0.13130815  0.25115785     0.03700
C2701       C  0.59269657  0.14418107  0.24895512    -0.05000
C2702       C  0.58192575  0.15414938  0.26420635    -0.23400
C2703       C  0.55902193  0.15106815  0.28176354     0.13000
C2704       C  0.54849189  0.13803886  0.28431290    -0.12500
N2705       N  0.59303123  0.12158152  0.23493607     0.64600
H2706       H  0.61002150  0.14638749  0.23514864     0.12500
N2707       N  0.54675055  0.16090704  0.29737113     0.61300
H2708       H  0.53092800  0.13568981  0.29786901     0.08600
O2709       O  0.99997302  0.09025202  0.21612368    -0.40200
O2710       O  0.96170440  0.09995185  0.23589680    -0.39400
O2711       O  0.56468934  0.11412521  0.32735874    -0.39400
O2712       O  0.60467164  0.10643231  0.30654205    -0.37100
O2713       O  0.52021178  0.16640057  0.29271181    -0.38000
O2714       O  0.55805910  0.16177359  0.31792646    -0.34100
O2715       O  0.58111440  0.12113797  0.21451688    -0.35500
O2716       O  0.61950012  0.11585877  0.23886004    -0.39800
C2717       C  0.51312904  0.18153403  0.12161269    -0.13500
C2718       C  0.54107262  0.18918384  0.12410938     0.16900
C2719       C  0.55254705  0.19614612  0.10438695     0.03100
C2720       C  0.53634133  0.19536126  0.08281728    -0.12000
C2721       C  0.50872807  0.18749790  0.07987843    -0.03100
C2722       C  0.49711360  0.18051517  0.09977475     0.02400
C2723       C  0.55846169  0.18959902  0.14713152     0.09200
N2724       N  0.58076116  0.20409855  0.10592925     0.65600
H2725       H  0.54604562  0.20086477  0.06804399     0.18500
N2726       N  0.97661191  0.17327703  0.09692250     0.76100
H2727       H  0.01194457  0.17750695  0.13453475     0.10000
C2728       C  0.54497761  0.19589383  0.16692282     0.03700
C2729       C  0.56176658  0.19617161  0.18829754    -0.05000
C2730       C  0.59192751  0.18995282  0.19102206    -0.23400
C2731       C  0.60527452  0.18341162  0.17115948     0.13000
C2732       C  0.58871715  0.18348622  0.14947091    -0.12500
N2733       N  0.51406959  0.20205650  0.16568286     0.64600
H2734       H  0.55050605  0.20115757  0.20309123     0.12500
N2735       N  0.63480393  0.17621180  0.17275646     0.61300
H2736       H  0.59920866  0.17841746  0.13445573     0.08600
O2737       O  0.94971152  0.17727481  0.10450966    -0.40200
O2738       O  0.98140777  0.16107833  0.09472540    -0.39400
O2739       O  0.60723333  0.19961260  0.09839537    -0.39400
O2740       O  0.57778028  0.21630800  0.10933525    -0.37100
O2741       O  0.63383847  0.16402932  0.17700224    -0.38000
O2742       O  0.66010792  0.18106204  0.16402675    -0.34100
O2743       O  0.99578131  0.19464365  0.17075607    -0.35500
O2744       O  0.51236068  0.21430692  0.16229803    -0.39800
C2745       C  0.53806216  0.04129662  0.12726178    -0.13500
C2746       C  0.54829442  0.05071626  0.14361437     0.16900
C2747       C  0.57611498  0.05818675  0.13832957     0.03100
C2748       C  0.59245790  0.05628077  0.11694894    -0.12000
C2749       C  0.58186017  0.04704371  0.10029666    -0.03100
C2750       C  0.55435726  0.03940071  0.10583386     0.02400
C2751       C  0.53206232  0.05150423  0.16707848     0.09200
N2752       N  0.58777994  0.06797174  0.15423699     0.65600
H2753       H  0.61330600  0.06236220  0.11317923     0.18500
N2754       N  0.54299015  0.02942068  0.09025930     0.76100
H2755       H  0.00418231  0.04729413  0.12419535     0.10000
C2756       C  0.49838968  0.05330255  0.16979284     0.03700
C2757       C  0.99034325  0.05964855  0.19418379    -0.05000
C2758       C  0.50345973  0.05159170  0.21264261    -0.23400
C2759       C  0.53712943  0.04975473  0.20974292     0.13000
C2760       C  0.55077079  0.04958271  0.18724823    -0.12500
N2761       N  0.00012674  0.07061756  0.15658176     0.64600
H2762       H  0.97332896  0.06743077  0.19838535     0.12500
N2763       N  0.55825335  0.04846353  0.22946455     0.61300
H2764       H  0.57643661  0.04774673  0.18557690     0.08600
O2765       O  0.01301182  0.05435217  0.07130754    -0.40200
O2766       O  0.55173920  0.01765808  0.09350121    -0.39400
O2767       O  0.61291709  0.06566036  0.16602543    -0.39400
O2768       O  0.57828024  0.07970578  0.15194991    -0.37100
O2769       O  0.56728326  0.03715302  0.23588396    -0.38000
O2770       O  0.57323602  0.05843473  0.23678856    -0.34100
O2771       O  0.97455331  0.07043802  0.14461617    -0.35500
O2772       O  0.47120160  0.06665393  0.14319879    -0.39800
C2773       C  0.53835800  0.09665375  0.00371184    -0.13500
C2774       C  0.55075156  0.10725449  0.01665648     0.16900
C2775       C  0.57320317  0.10488080  0.03460424     0.03100
C2776       C  0.58378470  0.09211616  0.03880803    -0.12000
C2777       C  0.57264937  0.08143967  0.02534662    -0.03100
C2778       C  0.54915957  0.08374605  0.00788838     0.02400
C2779       C  0.53716889  0.12051714  0.01366105     0.09200
N2780       N  0.09118473  0.11547445  0.04791981     0.65600
H2781       H  0.60130844  0.09060003  0.05272481     0.18500
N2782       N  0.53668311  0.07326172  0.99393844     0.76100
H2783       H  0.52020807  0.09842756  0.99034104     0.10000
C2784       C  0.55429210  0.13070631  0.00244725     0.03700
C2785       C  0.54194786  0.14352956  0.00279756    -0.05000
C2786       C  0.51256159  0.14635713  0.01400568    -0.23400
C2787       C  0.49515259  0.13596478  0.02474184     0.13000
C2788       C  0.50768001  0.12322890  0.02447958    -0.12500
N2789       N  0.58380179  0.12815710  0.99024416     0.64600
H2790       H  0.55531274  0.15128487  0.99402892     0.12500
N2791       N  0.46537276  0.13817340  0.03683147     0.61300
H2792       H  0.49465319  0.11541983  0.03339747     0.08600
O2793       O  0.54808303  0.07127610  0.97361047    -0.40200
O2794       O  0.51006521  0.06816090  0.99953349    -0.39400
O2795       O  0.07858203  0.11725946  0.06792815    -0.39400
O2796       O  0.11813256  0.12060853  0.04338827    -0.37100
O2797       O  0.46545926  0.13922634  0.05898121    -0.38000
O2798       O  0.94690045  0.13563279  0.03246112    -0.34100
O2799       O  0.58307544  0.12623761  0.96828635    -0.35500
O2800       O  0.61010579  0.13129461  0.99976241    -0.39800
C2801       C  0.78127935  0.25131632  0.25583306    -0.13500
C2802       C  0.74800868  0.25397771  0.25597299     0.16900
C2803       C  0.73761899  0.26718087  0.25708523     0.03100
C2804       C  0.76017484  0.27733181  0.25674257    -0.12000
C2805       C  0.79343299  0.27476351  0.25535791    -0.03100
C2806       C  0.80398990  0.26153074  0.25550264     0.02400
C2807       C  0.72448596  0.24295475  0.25510532     0.09200
N2808       N  0.70416415  0.27052860  0.25768863     0.65600
H2809       H  0.75126760  0.28737922  0.25686349     0.18500
N2810       N  0.83747485  0.25825538  0.25597344     0.76100
H2811       H  0.78974694  0.24121252  0.25614476     0.10000
C2812       C  0.72582934  0.23334823  0.23716944     0.03700
C2813       C  0.70347690  0.22308755  0.23691891    -0.05000
C2814       C  0.67944847  0.22206507  0.25425520    -0.23400
C2815       C  0.67821898  0.23158047  0.27235932     0.13000
C2816       C  0.70062885  0.24188375  0.27260831    -0.12500
N2817       N  0.74959656  0.23389083  0.21893649     0.64600
H2818       H  0.70511876  0.21575921  0.22305381     0.12500
N2819       N  0.65633598  0.23031974  0.29168624     0.61300
H2820       H  0.70001516  0.24886387  0.28705814     0.08600
O2821       O  0.85095235  0.25406181  0.23747670    -0.40200
O2822       O  0.85117744  0.25659348  0.27557868    -0.39400
O2823       O  0.69182946  0.27451559  0.27675528    -0.39400
O2824       O  0.68955911  0.27264141  0.23858284    -0.37100
O2825       O  0.66536880  0.22428242  0.30996056    -0.38000
O2826       O  0.63206683  0.23780347  0.29280021    -0.34100
O2827       O  0.77333416  0.22610835  0.21964347    -0.35500
O2828       O  0.74295762  0.23965154  0.19985353    -0.39800
C2829       C  0.91677184  0.38856847  0.21955424    -0.13500
C2830       C  0.93847676  0.37794301  0.22070217     0.16900
C2831       C  0.97132310  0.38014308  0.21654362     0.03100
C2832       C  0.98214987  0.39285039  0.21216333    -0.12000
C2833       C  0.96094910  0.40371014  0.21199207    -0.03100
C2834       C  0.92766807  0.40141706  0.21502011     0.02400
C2835       C  0.92662325  0.36455060  0.22577297     0.09200
N2836       N  0.99424520  0.36964526  0.21776342     0.65600
H2837       H  0.00784379  0.39421453  0.20948203     0.18500
N2838       N  0.90479801  0.41191953  0.21392403     0.76100
H2839       H  0.89120814  0.38686188  0.22226393     0.10000
C2840       C  0.91551586  0.36110770  0.24838877     0.03700
C2841       C  0.90273733  0.34859921  0.25232126    -0.05000
C2842       C  0.90124713  0.33930910  0.23411258    -0.23400
C2843       C  0.91322121  0.34260219  0.21159688     0.13000
C2844       C  0.92595079  0.35517462  0.20764805    -0.12500
N2845       N  0.91732280  0.37017236  0.26756096     0.64600
H2846       H  0.89349972  0.34616592  0.26969132     0.12500
N2847       N  0.91012625  0.33375858  0.19217515     0.61300
H2848       H  0.93435131  0.35779509  0.19014622     0.08600
O2849       O  0.89353957  0.41664696  0.23279185    -0.40200
O2850       O  0.89058715  0.41423357  0.19472468    -0.39400
O2851       O  0.50595631  0.36673437  0.23718226    -0.39400
O2852       O  0.00814264  0.36726837  0.23705993    -0.37100
O2853       O  0.88530695  0.33436618  0.17941559    -0.38000
O2854       O  0.93470233  0.32772293  0.18467699    -0.34100
O2855       O  0.89221013  0.37615600  0.27419105    -0.35500
O2856       O  0.94161305  0.36992234  0.28087940    -0.39800
C2857       C  0.91876465  0.29550011  0.34316359    -0.13500
C2858       C  0.91645653  0.30696898  0.35676088     0.16900
C2859       C  0.89765548  0.31755493  0.34833049     0.03100
C2860       C  0.88199237  0.31656810  0.32649589    -0.12000
C2861       C  0.88508013  0.30525297  0.31247593    -0.03100
C2862       C  0.90342788  0.29454844  0.32120958     0.02400
C2863       C  0.93417007  0.30767242  0.37949868     0.09200
N2864       N  0.89569882  0.32964657  0.36106453     0.65600
H2865       H  0.86842886  0.32496949  0.32000430     0.18500
N2866       N  0.90609051  0.28251382  0.30833634     0.76100
H2867       H  0.93280445  0.28721791  0.34961098     0.10000
C2868       C  0.91834880  0.30557184  0.40110604     0.03700
C2869       C  0.93586315  0.30572168  0.42214694    -0.05000
C2870       C  0.96941958  0.30787224  0.42246681    -0.23400
C2871       C  0.98535669  0.30981168  0.40068711     0.13000
C2872       C  0.96766404  0.30968326  0.37950596    -0.12500
N2873       N  0.88459976  0.30286759  0.40198752     0.64600
H2874       H  0.92277526  0.30416661  0.43846792     0.12500
N2875       N  0.01947495  0.31142184  0.39957784     0.61300
H2876       H  0.98021479  0.31103619  0.36290058     0.08600
O2877       O  0.88784346  0.27305100  0.31362460    -0.40200
O2878       O  0.93105371  0.28032414  0.29620034    -0.39400
O2879       O  0.91463728  0.33886918  0.35572576    -0.39400
O2880       O  0.87059465  0.33222452  0.37278341    -0.37100
O2881       O  0.03710535  0.30148810  0.39591591    -0.38000
O2882       O  0.03099985  0.32277411  0.39661464    -0.34100
O2883       O  0.87531456  0.29106892  0.40285456    -0.35500
O2884       O  0.86530521  0.31190412  0.40790132    -0.39800
C2885       C  0.93946880  0.45305047  0.30530465    -0.13500
C2886       C  0.95109118  0.44437158  0.32242927     0.16900
C2887       C  0.97714198  0.43599755  0.31682159     0.03100
C2888       C  0.99051965  0.43624653  0.29408487    -0.12000
C2889       C  0.97813000  0.44459910  0.27652507    -0.03100
C2890       C  0.95255439  0.45326744  0.28256672     0.02400
C2891       C  0.93438237  0.44395413  0.34551633     0.09200
N2892       N  0.98903208  0.42665196  0.33349691     0.65600
H2893       H  0.50215019  0.42653730  0.28811266     0.18500
N2894       N  0.93922577  0.46228686  0.26587752     0.76100
H2895       H  0.91952869  0.45959803  0.30953917     0.10000
C2896       C  0.94726470  0.45014081  0.36551829     0.03700
C2897       C  0.92922344  0.45076355  0.38632642    -0.05000
C2898       C  0.89821582  0.44524793  0.38791757    -0.23400
C2899       C  0.88543124  0.43893006  0.36780302     0.13000
C2900       C  0.90349208  0.43843000  0.34686092    -0.12500
N2901       N  0.97826649  0.45618632  0.36486680     0.64600
H2902       H  0.93989923  0.45558215  0.40145013     0.12500
N2903       N  0.85420888  0.43306642  0.36815476     0.61300
H2904       H  0.89319143  0.43379280  0.33140712     0.08600
O2905       O  0.94823211  0.47412993  0.26618388    -0.40200
O2906       O  0.91345540  0.45933808  0.25540587    -0.39400
O2907       O  0.45989561  0.41386605  0.32650662    -0.39400
O2908       O  0.01550726  0.42880833  0.34362893    -0.37100
O2909       O  0.85177875  0.42077860  0.37074937    -0.38000
O2910       O  0.83036027  0.43953360  0.36062305    -0.34100
O2911       O  0.98011789  0.46838972  0.36105066    -0.35500
O2912       O  0.00181549  0.45034667  0.37428063    -0.39800
C2913       C  0.98001804  0.37150722  0.49075135    -0.13500
C2914       C  0.94840307  0.37363860  0.48312351     0.16900
C2915       C  0.92829202  0.36270523  0.47902337     0.03100
C2916       C  0.94030535  0.34991666  0.48203290    -0.12000
C2917       C  0.97243766  0.34773999  0.48860801    -0.03100
C2918       C  0.99224604  0.35873337  0.49338333     0.02400
C2919       C  0.93794246  0.38718674  0.47710620     0.09200
N2920       N  0.89580119  0.36443889  0.47133073     0.65600
H2921       H  0.92471020  0.34163096  0.47826249     0.18500
N2922       N  0.52660112  0.35716196  0.49902574     0.76100
H2923       H  0.99578388  0.37983530  0.49378751     0.10000
C2924       C  0.93595906  0.39728600  0.49413882     0.03700
C2925       C  0.92484346  0.40980568  0.48762028    -0.05000
C2926       C  0.91586233  0.41243769  0.46431466    -0.23400
C2927       C  0.92017879  0.40265483  0.44700483     0.13000
C2928       C  0.93103284  0.39014271  0.45351866    -0.12500
N2929       N  0.94335577  0.39479223  0.51829588     0.64600
H2930       H  0.92133992  0.41725249  0.50111375     0.12500
N2931       N  0.91412108  0.40539046  0.42270449     0.61300
H2932       H  0.93400415  0.38264506  0.44005440     0.08600
O2933       O  0.53416587  0.35803371  0.52048941    -0.40200
O2934       O  0.54830731  0.35808633  0.48350677    -0.39400
O2935       O  0.88895369  0.36263138  0.44992380    -0.39400
O2936       O  0.87342685  0.36487297  0.48640553    -0.37100
O2937       O  0.93673246  0.40962697  0.40990237    -0.38000
O2938       O  0.88883533  0.40109798  0.41316102    -0.34100
O2939       O  0.96968716  0.39884501  0.52659863    -0.35500
O2940       O  0.92104256  0.39150180  0.53221977    -0.39800
C2941       C  0.77844062  0.49686403  0.44974361    -0.13500
C2942       C  0.74595515  0.49300582  0.45015374     0.16900
C2943       C  0.73861031  0.47955115  0.44817889     0.03100
C2944       C  0.76342916  0.47027407  0.44654335    -0.12000
C2945       C  0.79607206  0.47397941  0.44688799    -0.03100
C2946       C  0.80346744  0.48754588  0.44809694     0.02400
C2947       C  0.72013393  0.50316185  0.45186437     0.09200
N2948       N  0.70606266  0.47505455  0.44892329     0.65600
H2949       H  0.75683044  0.45995323  0.44574377     0.18500
N2950       N  0.83595321  0.49210078  0.44697420     0.76100
H2951       H  0.78444440  0.50725226  0.45047281     0.10000
C2952       C  0.71889905  0.51204689  0.47091599     0.03700
C2953       C  0.69662172  0.52239324  0.47080630    -0.05000
C2954       C  0.67481820  0.52404583  0.45219257    -0.23400
C2955       C  0.67484739  0.51478111  0.43365122     0.13000
C2956       C  0.69756485  0.50449920  0.43358910    -0.12500
N2957       N  0.73990222  0.51062011  0.49065707     0.64600
H2958       H  0.69658802  0.52931121  0.48538778     0.12500
N2959       N  0.65377351  0.51622189  0.41394483     0.61300
H2960       H  0.69841224  0.49782307  0.41867068     0.08600
O2961       O  0.84947421  0.49600391  0.46558015    -0.40200
O2962       O  0.84753459  0.49542924  0.42727688    -0.39400
O2963       O  0.69289734  0.47115906  0.43017439    -0.39400
O2964       O  0.69379395  0.47194728  0.46850757    -0.37100
O2965       O  0.66312590  0.52262810  0.39615688    -0.38000
O2966       O  0.62966784  0.50876242  0.41214904    -0.34100
O2967       O  0.76298107  0.51853949  0.49317328    -0.35500
O2968       O  0.73092297  0.50376052  0.50799429    -0.39800
C2969       C  0.56127353  0.64147419  0.44282039    -0.13500
C2970       C  0.53820256  0.63140193  0.44196240     0.16900
C2971       C  0.50529105  0.63475685  0.44236309     0.03100
C2972       C  0.99576999  0.64832787  0.44293654    -0.12000
C2973       C  0.51913695  0.65802358  0.44655374    -0.03100
C2974       C  0.55209402  0.65471269  0.44502228     0.02400
C2975       C  0.54917866  0.61757684  0.44407308     0.09200
N2976       N  0.97943360  0.62542095  0.44018503     0.65600
H2977       H  0.97028659  0.65079929  0.44337388     0.18500
N2978       N  0.57651878  0.66449435  0.44708722     0.76100
H2979       H  0.58674468  0.63896789  0.44270703     0.10000
C2980       C  0.54606066  0.60832355  0.42568590     0.03700
C2981       C  0.55860698  0.59558430  0.42849858    -0.05000
C2982       C  0.57497403  0.59202167  0.44912380    -0.23400
C2983       C  0.57741353  0.60119674  0.46766587     0.13000
C2984       C  0.56432414  0.61379220  0.46505713    -0.12500
N2985       N  0.53253890  0.61194615  0.40348550     0.64600
H2986       H  0.55717147  0.58868233  0.41396441     0.12500
N2987       N  0.59264826  0.59782095  0.48940468     0.61300
H2988       H  0.56647458  0.62077657  0.47941847     0.08600
O2989       O  0.59016470  0.66875258  0.42872604    -0.40200
O2990       O  0.58912514  0.66662120  0.46692685    -0.39400
O2991       O  0.96743651  0.62146821  0.45936744    -0.39400
O2992       O  0.96391112  0.62372228  0.42135092    -0.37100
O2993       O  0.62095917  0.60173283  0.49328907    -0.38000
O2994       O  0.57547990  0.59402899  0.50646955    -0.34100
O2995       O  0.55074220  0.61671761  0.38784697    -0.35500
O2996       O  0.50582650  0.60713332  0.39745643    -0.39800
C2997       C  0.57100050  0.69740257  0.54666397    -0.13500
C2998       C  0.55295271  0.69371019  0.56645816     0.16900
C2999       C  0.51969577  0.69118223  0.56369965     0.03100
C3000       C  0.00639904  0.69031446  0.54047804    -0.12000
C3001       C  0.52365901  0.69551492  0.52145687    -0.03100
C3002       C  0.55681984  0.69838703  0.52435992     0.02400
C3003       C  0.56854090  0.69357085  0.59003599     0.09200
N3004       N  0.00140972  0.68433592  0.58181365     0.65600
H3005       H  0.98098455  0.68799876  0.53866491     0.18500
N3006       N  0.57660897  0.70226214  0.50494079     0.76100
H3007       H  0.59632301  0.69984124  0.54859735     0.10000
C3008       C  0.59623247  0.68591872  0.59495153     0.03700
C3009       C  0.60956393  0.68601263  0.61766289    -0.05000
C3010       C  0.59597645  0.69367878  0.63576639    -0.23400
C3011       C  0.56935294  0.70188200  0.63031924     0.13000
C3012       C  0.55608938  0.70173336  0.60771523    -0.12500
N3013       N  0.61049598  0.67768255  0.57735658     0.64600
H3014       H  0.63010884  0.67969613  0.62129651     0.12500
N3015       N  0.55559046  0.71058358  0.64738128     0.61300
H3016       H  0.53586456  0.70818850  0.60389421     0.08600
O3017       O  0.59443502  0.69382498  0.49504600    -0.40200
O3018       O  0.58178837  0.71433250  0.50142569    -0.39400
O3019       O  0.98107314  0.69202677  0.59106683    -0.39400
O3020       O  0.99860734  0.67211068  0.58504053    -0.37100
O3021       O  0.56467816  0.72241301  0.64794925    -0.38000
O3022       O  0.52975893  0.70739381  0.65763867    -0.34100
O3023       O  0.63593978  0.68139604  0.56714579    -0.35500
O3024       O  0.60246814  0.66573884  0.57623541    -0.39800
C3025       C  0.54738892  0.54555039  0.59996124    -0.13500
C3026       C  0.54054614  0.55593863  0.58449831     0.16900
C3027       C  0.51561079  0.56484837  0.59045692     0.03100
C3028       C  0.49830586  0.56319937  0.61154157    -0.12000
C3029       C  0.50519368  0.55280267  0.62703773    -0.03100
C3030       C  0.53011069  0.54385885  0.62092507     0.02400
C3031       C  0.55743173  0.55610257  0.56131527     0.09200
N3032       N  0.01093692  0.57705608  0.57464277     0.65600
H3033       H  0.98258747  0.57145584  0.61493429     0.18500
N3034       N  0.53783052  0.53280625  0.63546897     0.76100
H3035       H  0.56613602  0.53848890  0.59547545     0.10000
C3036       C  0.57860954  0.56623660  0.55426268     0.03700
C3037       C  0.59488845  0.56532135  0.53256060    -0.05000
C3038       C  0.59070715  0.55442746  0.51766046    -0.23400
C3039       C  0.57043515  0.54410825  0.52520198     0.13000
C3040       C  0.55397214  0.54508525  0.54667326    -0.12500
N3041       N  0.58489752  0.57725319  0.56916047     0.64600
H3042       H  0.61051933  0.57330943  0.52716623     0.12500
N3043       N  0.56734421  0.53228819  0.51179428     0.61300
H3044       H  0.53853523  0.53704061  0.55213035     0.08600
O3045       O  0.56247637  0.53321686  0.64842116    -0.40200
O3046       O  0.52480895  0.52185326  0.63130734    -0.39400
O3047       O  0.98867857  0.57608648  0.55965589    -0.39400
O3048       O  0.01943088  0.58835106  0.58137909    -0.37100
O3049       O  0.58578336  0.52271009  0.51623144    -0.38000
O3050       O  0.54195856  0.53032997  0.50014891    -0.34100
O3051       O  0.60726742  0.57640151  0.58409980    -0.35500
O3052       O  0.57525680  0.58850651  0.56289333    -0.39800
C3053       C  0.53506330  0.60873258  0.68102442    -0.13500
C3054       C  0.55016057  0.61232522  0.70200854     0.16900
C3055       C  0.55309140  0.60303023  0.72035010     0.03100
C3056       C  0.53993849  0.59040743  0.71765289    -0.12000
C3057       C  0.52372221  0.58699677  0.69692175    -0.03100
C3058       C  0.52176431  0.59624265  0.67834402     0.02400
C3059       C  0.56276640  0.62584667  0.70388168     0.09200
N3060       N  0.56865780  0.60635918  0.74192534     0.65600
H3061       H  0.54109351  0.58347966  0.73218640     0.18500
N3062       N  0.99822284  0.59513472  0.65745817     0.76100
H3063       H  0.53318564  0.61577698  0.66669797     0.10000
C3064       C  0.59270661  0.62900440  0.69392013     0.03700
C3065       C  0.60287046  0.64205326  0.69338761    -0.05000
C3066       C  0.58346764  0.65234341  0.70223960    -0.23400
C3067       C  0.55281526  0.64919375  0.71155292     0.13000
C3068       C  0.54290769  0.63597673  0.71250825    -0.12500
N3069       N  0.61260726  0.61908492  0.68348402     0.64600
H3070       H  0.62627648  0.64409195  0.68568092     0.12500
N3071       N  0.53114203  0.65921622  0.71942721     0.61300
H3072       H  0.51916796  0.63363623  0.71935355     0.08600
O3073       O  0.01192052  0.59207814  0.63834859    -0.40200
O3074       O  0.96981129  0.59958565  0.65697478    -0.39400
O3075       O  0.55178755  0.60909334  0.75980484    -0.39400
O3076       O  0.59815101  0.60369349  0.74447428    -0.37100
O3077       O  0.52748626  0.66116276  0.74122821    -0.38000
O3078       O  0.51087057  0.66393616  0.70517533    -0.34100
O3079       O  0.61186047  0.61739972  0.66146095    -0.35500
O3080       O  0.63531200  0.61410734  0.69527316    -0.39800
C3081       C  0.76699121  0.98462432  0.01306093    -0.13500
C3082       C  0.75985219  0.98874204  0.03605502     0.16900
C3083       C  0.77719231  0.98327232  0.05508017     0.03100
C3084       C  0.80072179  0.97364111  0.05081245    -0.12000
C3085       C  0.80645330  0.96897384  0.02796849    -0.03100
C3086       C  0.78973603  0.97470308  0.00888557     0.02400
C3087       C  0.73326268  0.99830409  0.03962771     0.09200
N3088       N  0.76883346  0.98628075  0.07891338     0.65600
H3089       H  0.81247850  0.96893901  0.06568790     0.18500
N3090       N  0.79499380  0.97032936  0.98524453     0.76100
H3091       H  0.75398401  0.98884527  0.99828648     0.10000
C3092       C  0.73914453  0.01108195  0.04796289     0.03700
C3093       C  0.71375815  0.02006862  0.04966454    -0.05000
C3094       C  0.68227901  0.01687386  0.04232105    -0.23400
C3095       C  0.67639113  0.00399316  0.03412515     0.13000
C3096       C  0.70179257  0.99483599  0.03303490    -0.12500
N3097       N  0.77113948  0.01550968  0.05270936     0.64600
H3098       H  0.71940169  0.02991778  0.05567295     0.12500
N3099       N  0.64526600  0.00014906  0.02606645     0.61300
H3100       H  0.69710896  0.98502689  0.02638107     0.08600
O3101       O  0.77510924  0.96254649  0.97594579    -0.40200
O3102       O  0.81417607  0.97663079  0.97219790    -0.39400
O3103       O  0.74641575  0.97991150  0.08866958    -0.39400
O3104       O  0.78886714  0.99227032  0.09164934    -0.37100
O3105       O  0.63906792  0.00060784  0.00432301    -0.38000
O3106       O  0.62713600  0.99364437  0.03958380    -0.34100
O3107       O  0.78770582  0.02017711  0.03602293    -0.35500
O3108       O  0.77901391  0.01812411  0.07364379    -0.39800
C3109       C  0.92648833  0.88055863  0.01194604    -0.13500
C3110       C  0.90340869  0.87110905  0.00575775     0.16900
C3111       C  0.87057269  0.87431896  0.00721123     0.03100
C3112       C  0.86130173  0.88693249  0.01404113    -0.12000
C3113       C  0.88418716  0.89672760  0.01914297    -0.03100
C3114       C  0.91721439  0.89331841  0.01864499     0.02400
C3115       C  0.91385460  0.85787043  0.99818093     0.09200
N3116       N  0.84635980  0.86511997  0.00041095     0.65600
H3117       H  0.83571943  0.88915982  0.01442140     0.18500
N3118       N  0.94160103  0.90265593  0.02435512     0.76100
H3119       H  0.95190663  0.87803154  0.01136434     0.10000
C3120       C  0.93162641  0.85608108  0.97728960     0.03700
C3121       C  0.94304097  0.84358551  0.97140542    -0.05000
C3122       C  0.93759442  0.83273365  0.98620922    -0.23400
C3123       C  0.91904023  0.83445607  0.00686338     0.13000
C3124       C  0.90704060  0.84697489  0.01251681    -0.12500
N3125       N  0.93885175  0.86690318  0.96210823     0.64600
H3126       H  0.95726892  0.84245638  0.95546483     0.12500
N3127       N  0.91487722  0.82399372  0.02339588     0.61300
H3128       H  0.89368832  0.84833035  0.02879633     0.08600
O3129       O  0.95641957  0.90846989  0.00795932    -0.40200
O3130       O  0.95320624  0.90275305  0.04488517    -0.39400
O3131       O  0.82975853  0.85949454  0.01608581    -0.39400
O3132       O  0.83684981  0.86494097  0.97931075    -0.37100
O3133       O  0.93539536  0.82242199  0.03953833    -0.38000
O3134       O  0.88775208  0.81851748  0.02520562    -0.34100
O3135       O  0.96645013  0.87205188  0.96288664    -0.35500
O3136       O  0.92089904  0.86919296  0.94466500    -0.39800
C3137       C  0.77355059  0.75250927  0.71897956    -0.13500
C3138       C  0.74092260  0.75508988  0.71377589     0.16900
C3139       C  0.73052532  0.76834588  0.71318716     0.03100
C3140       C  0.75238714  0.77846102  0.71767733    -0.12000
C3141       C  0.78502825  0.77590212  0.72241866    -0.03100
C3142       C  0.79567454  0.76273820  0.72282735     0.02400
C3143       C  0.71798241  0.74392668  0.71000516     0.09200
N3144       N  0.69805297  0.77182233  0.70749492     0.65600
H3145       H  0.74367310  0.78854560  0.71699855     0.18500
N3146       N  0.82836202  0.75953951  0.72815325     0.76100
H3147       H  0.78193174  0.74243483  0.72063170     0.10000
C3148       C  0.72557700  0.73325975  0.69498752     0.03700
C3149       C  0.70428970  0.72267688  0.69296033    -0.05000
C3150       C  0.67485292  0.72234233  0.70530867    -0.23400
C3151       C  0.66669648  0.73316690  0.71970913     0.13000
C3152       C  0.68843597  0.74363748  0.72227134    -0.12500
N3153       N  0.75465890  0.73299174  0.68142698     0.64600
H3154       H  0.71111737  0.71456646  0.68154049     0.12500
N3155       N  0.63701841  0.73354100  0.73246570     0.61300
H3156       H  0.68240875  0.75143858  0.73453840     0.08600
O3157       O  0.84748182  0.75674113  0.71156160    -0.40200
O3158       O  0.83584436  0.75651944  0.74900751    -0.39400
O3159       O  0.67961825  0.77594791  0.72362623    -0.39400
O3160       O  0.69094380  0.77420633  0.68631327    -0.37100
O3161       O  0.63653741  0.73011079  0.75383419    -0.38000
O3162       O  0.61351345  0.73990446  0.72412135    -0.34100
O3163       O  0.77713496  0.72531332  0.68746921    -0.35500
O3164       O  0.75439029  0.73751714  0.66072239    -0.39800
C3165       C  0.90828533  0.79175633  0.82422885    -0.13500
C3166       C  0.89826204  0.80009836  0.84252416     0.16900
C3167       C  0.87277102  0.80902854  0.83811031     0.03100
C3168       C  0.85818633  0.80947167  0.81575987    -0.12000
C3169       C  0.86891512  0.80142801  0.79715411    -0.03100
C3170       C  0.89414659  0.79234855  0.80178543     0.02400
C3171       C  0.91586318  0.79964665  0.86551852     0.09200
N3172       N  0.86315044  0.81848061  0.85539524     0.65600
H3173       H  0.83937172  0.81671156  0.81263770     0.18500
N3174       N  0.90605052  0.78370664  0.78389964     0.76100
H3175       H  0.92777565  0.78480924  0.82730199     0.10000
C3176       C  0.90087092  0.79554937  0.88659761     0.03700
C3177       C  0.91844976  0.79510938  0.90767207    -0.05000
C3178       C  0.95132238  0.79844743  0.90853789    -0.23400
C3179       C  0.96667958  0.80209467  0.88719788     0.13000
C3180       C  0.94887608  0.80271901  0.86609794    -0.12500
N3181       N  0.86827274  0.79109309  0.88681713     0.64600
H3182       H  0.90601574  0.79207111  0.92357926     0.12500
N3183       N  0.00048559  0.80463464  0.88628234     0.61300
H3184       H  0.96103512  0.80553371  0.84994009     0.08600
O3185       O  0.89622676  0.77197816  0.78326862    -0.40200
O3186       O  0.93114179  0.78679549  0.77260346    -0.39400
O3187       O  0.87804668  0.82926398  0.85647470    -0.39400
O3188       O  0.83536900  0.81771288  0.86435693    -0.37100
O3189       O  0.01944581  0.79541270  0.88067957    -0.38000
O3190       O  0.01015164  0.81636522  0.88488860    -0.34100
O3191       O  0.86269277  0.77916444  0.88229076    -0.35500
O3192       O  0.84736687  0.79768088  0.89792010    -0.39800
C3193       C  0.95940007  0.93408291  0.88736580    -0.13500
C3194       C  0.93015893  0.94090887  0.89002013     0.16900
C3195       C  0.91875092  0.94856658  0.87113744     0.03100
C3196       C  0.93577729  0.94883665  0.84981466    -0.12000
C3197       C  0.96464037  0.94170925  0.84664139    -0.03100
C3198       C  0.97676653  0.93444105  0.86603892     0.02400
C3199       C  0.91319297  0.94062746  0.91312781     0.09200
N3200       N  0.89050500  0.95652303  0.87354213     0.65600
H3201       H  0.92599495  0.95470227  0.83552944     0.18500
N3202       N  0.50297463  0.92536806  0.86402411     0.76100
H3203       H  0.96889903  0.92844457  0.90205529     0.10000
C3204       C  0.88497536  0.93320041  0.91687682     0.03700
C3205       C  0.87084158  0.93272643  0.93938200    -0.05000
C3206       C  0.88439311  0.93947217  0.95855927    -0.23400
C3207       C  0.91230903  0.94717928  0.95449026     0.13000
C3208       C  0.92631912  0.94763247  0.93200106    -0.12500
N3209       N  0.87125317  0.92554862  0.89836291     0.64600
H3210       H  0.84965007  0.92667547  0.94196720     0.12500
N3211       N  0.92690367  0.95463813  0.97290817     0.61300
H3212       H  0.94789017  0.95344706  0.92928145     0.08600
O3213       O  0.50107598  0.91318333  0.86003641    -0.40200
O3214       O  0.52881454  0.92997491  0.87222911    -0.39400
O3215       O  0.89351734  0.96842678  0.87941044    -0.39400
O3216       O  0.86471475  0.95285589  0.86388537    -0.37100
O3217       O  0.92021894  0.96670686  0.97490514    -0.38000
O3218       O  0.95129810  0.95005675  0.98334374    -0.34100
O3219       O  0.87901937  0.91358054  0.89651676    -0.35500
O3220       O  0.84590303  0.92957677  0.88844687    -0.39800
C3221       C  0.92275375  0.86039763  0.73591667    -0.13500
C3222       C  0.90478236  0.86944707  0.74938569     0.16900
C3223       C  0.87346444  0.86604504  0.75659352     0.03100
C3224       C  0.86123692  0.85367802  0.75110666    -0.12000
C3225       C  0.87939455  0.84435902  0.73833366    -0.03100
C3226       C  0.91036694  0.84793595  0.73029026     0.02400
C3227       C  0.91901407  0.88228023  0.75615979     0.09200
N3228       N  0.85410459  0.87484402  0.77029893     0.65600
H3229       H  0.83726499  0.85130506  0.75749669     0.18500
N3230       N  0.92908682  0.83929344  0.71585959     0.76100
H3231       H  0.94656076  0.86306625  0.72958024     0.10000
C3232       C  0.94772585  0.88283493  0.76921817     0.03700
C3233       C  0.96044270  0.89498525  0.77563642    -0.05000
C3234       C  0.94562502  0.90691022  0.76901507    -0.23400
C3235       C  0.91665204  0.90636548  0.75601426     0.13000
C3236       C  0.90365873  0.89410164  0.74978240    -0.12500
N3237       N  0.96435476  0.87113658  0.77621099     0.64600
H3238       H  0.98268976  0.89498979  0.78562599     0.12500
N3239       N  0.90063373  0.91804833  0.74831744     0.61300
H3240       H  0.88174069  0.89381909  0.73942658     0.08600
O3241       O  0.95208095  0.83292207  0.72490392    -0.40200
O3242       O  0.92753568  0.84038162  0.69373767    -0.39400
O3243       O  0.83146283  0.88106323  0.76046395    -0.39400
O3244       O  0.85446501  0.87392563  0.79247018    -0.37100
O3245       O  0.90591737  0.92231457  0.72778601    -0.38000
O3246       O  0.87603594  0.92201134  0.75937169    -0.34100
O3247       O  0.98924607  0.86762842  0.76500790    -0.35500
O3248       O  0.95916095  0.86638662  0.79640486    -0.39800
C3249       C  0.89622921  0.68103333  0.31043642    -0.13500
C3250       C  0.92535611  0.68691177  0.31704702     0.16900
C3251       C  0.94686204  0.69114080  0.29916650     0.03100
C3252       C  0.93811205  0.69006005  0.27542613    -0.12000
C3253       C  0.90802470  0.68504406  0.26907073    -0.03100
C3254       C  0.88732323  0.68016461  0.28674462     0.02400
C3255       C  0.93334004  0.68805023  0.34253000     0.09200
N3256       N  0.97686892  0.69722314  0.30477021     0.65600
H3257       H  0.95415248  0.69390800  0.26196538     0.18500
N3258       N  0.85746123  0.67405012  0.28084796     0.76100
H3259       H  0.88022701  0.67705199  0.32376893     0.10000
C3260       C  0.91163534  0.69364348  0.35908054     0.03700
C3261       C  0.92020149  0.69447005  0.38294102    -0.05000
C3262       C  0.95038883  0.69008057  0.39058554    -0.23400
C3263       C  0.97160845  0.68412246  0.37423185     0.13000
C3264       C  0.96277687  0.68302553  0.35058606    -0.12500
N3265       N  0.88151280  0.69911923  0.35181183     0.64600
H3266       H  0.90378120  0.69911013  0.39533762     0.12500
N3267       N  0.49268759  0.67450198  0.38383458     0.61300
H3268       H  0.97906950  0.67811930  0.33844838     0.08600
O3269       O  0.83140496  0.68023156  0.28404973    -0.40200
O3270       O  0.85674414  0.66179366  0.27735822    -0.39400
O3271       O  0.00276132  0.69097793  0.30121547    -0.39400
O3272       O  0.97784759  0.70953370  0.30749189    -0.37100
O3273       O  0.48824289  0.66264597  0.38955535    -0.38000
O3274       O  0.52096299  0.67846541  0.37987577    -0.34100
O3275       O  0.85575451  0.69314848  0.35675011    -0.35500
O3276       O  0.88022462  0.71104293  0.34568743    -0.39800
C3277       C  0.68392496  0.56767056  0.34938879    -0.13500
C3278       C  0.66125972  0.56299066  0.33307617     0.16900
C3279       C  0.63158851  0.55824198  0.34150311     0.03100
C3280       C  0.62530049  0.55810496  0.36571555    -0.12000
C3281       C  0.64812853  0.56243940  0.38230189    -0.03100
C3282       C  0.67768737  0.56748415  0.37378636     0.02400
C3283       C  0.67068431  0.56159687  0.30787960     0.09200
N3284       N  0.60831432  0.55270375  0.32592138     0.65600
H3285       H  0.60234295  0.55414431  0.37153397     0.18500
N3286       N  0.70196757  0.57210648  0.38949208     0.76100
H3287       H  0.70709490  0.57120478  0.34311861     0.10000
C3288       C  0.65781945  0.56956176  0.28979306     0.03700
C3289       C  0.66857751  0.56797288  0.26642689    -0.05000
C3290       C  0.69220468  0.55856687  0.26057458    -0.23400
C3291       C  0.70431041  0.55036581  0.27879423     0.13000
C3292       C  0.69359451  0.55201170  0.30202936    -0.12500
N3293       N  0.63491078  0.57968041  0.29493452     0.64600
H3294       H  0.65892983  0.57439925  0.25288762     0.12500
N3295       N  0.72706363  0.54010817  0.27410653     0.61300
H3296       H  0.70329726  0.54568916  0.31572269     0.08600
O3297       O  0.70454040  0.58430484  0.39311563    -0.40200
O3298       O  0.72503801  0.56458312  0.39490430    -0.39400
O3299       O  0.60899718  0.54047966  0.32207213    -0.39400
O3300       O  0.58266063  0.55900098  0.32191408    -0.37100
O3301       O  0.75643891  0.54198523  0.27863452    -0.38000
O3302       O  0.71706815  0.52849748  0.27138089    -0.34100
O3303       O  0.64484590  0.59119416  0.29879896    -0.35500
O3304       O  0.60580979  0.57800503  0.28936265    -0.39800
C3305       C  0.62580613  0.51192063  0.17529000    -0.13500
C3306       C  0.63126316  0.50209858  0.19209110     0.16900
C3307       C  0.65984696  0.50226216  0.20541758     0.03100
C3308       C  0.68150327  0.51265407  0.20281088    -0.12000
C3309       C  0.67520521  0.52293233  0.18698307    -0.03100
C3310       C  0.64762717  0.52224414  0.17243628     0.02400
C3311       C  0.60759612  0.49141715  0.19465326     0.09200
N3312       N  0.66642947  0.49230235  0.22251325     0.65600
H3313       H  0.70251728  0.51299318  0.21410653     0.18500
N3314       N  0.64176239  0.53175396  0.15437038     0.76100
H3315       H  0.60452743  0.51152866  0.16426076     0.10000
C3316       C  0.57632592  0.49376882  0.20353741     0.03700
C3317       C  0.55451225  0.48334909  0.20568751    -0.05000
C3318       C  0.56353725  0.47060099  0.19907226    -0.23400
C3319       C  0.59439832  0.46840929  0.18911282     0.13000
C3320       C  0.61615076  0.47878792  0.18718291    -0.12500
N3321       N  0.56687279  0.50657340  0.21129484     0.64600
H3322       H  0.53094731  0.48513222  0.21338244     0.12500
N3323       N  0.60355263  0.45580818  0.18003673     0.61300
H3324       H  0.63977139  0.47701576  0.17954759     0.08600
O3325       O  0.61980361  0.54022418  0.15722059    -0.40200
O3326       O  0.65284436  0.52974000  0.13395122    -0.39400
O3327       O  0.68743957  0.48364594  0.21806512    -0.39400
O3328       O  0.65721463  0.49397622  0.24350718    -0.37100
O3329       O  0.59745647  0.45308079  0.15881856    -0.38000
O3330       O  0.62390216  0.44893675  0.19107894    -0.34100
O3331       O  0.54826845  0.51339714  0.19864201    -0.35500
O3332       O  0.57130781  0.50979202  0.23250751    -0.39800
C3333       C  0.79080506  0.61085307  0.18398462    -0.13500
C3334       C  0.80141682  0.61503419  0.20612800     0.16900
C3335       C  0.79951269  0.60641340  0.22554429     0.03100
C3336       C  0.78695347  0.59375472  0.22249056    -0.12000
C3337       C  0.77540306  0.58975126  0.20047851    -0.03100
C3338       C  0.77756929  0.59836323  0.18104609     0.02400
C3339       C  0.81353617  0.62858275  0.20832775     0.09200
N3340       N  0.80787236  0.61068824  0.24869984     0.65600
H3341       H  0.78455155  0.58730929  0.23761753     0.18500
N3342       N  0.76664640  0.59453492  0.15818959     0.76100
H3343       H  0.79238436  0.61741976  0.16896060     0.10000
C3344       C  0.84666078  0.63112357  0.21044901     0.03700
C3345       C  0.85763386  0.64406009  0.20958708    -0.05000
C3346       C  0.83625398  0.65465342  0.20626351    -0.23400
C3347       C  0.80296862  0.65210855  0.20443020     0.13000
C3348       C  0.79193047  0.63911261  0.20551804    -0.12500
N3349       N  0.86968515  0.62067140  0.21190334     0.64600
H3350       H  0.88334525  0.64577280  0.21105656     0.12500
N3351       N  0.78036679  0.66243623  0.19998344     0.61300
H3352       H  0.76640861  0.63717157  0.20336936     0.08600
O3353       O  0.78666048  0.58991219  0.14358035    -0.40200
O3354       O  0.73974472  0.59865956  0.15090941    -0.39400
O3355       O  0.78662598  0.61613016  0.26134578    -0.39400
O3356       O  0.83290146  0.60614102  0.25832940    -0.37100
O3357       O  0.77311759  0.66526329  0.17899492    -0.38000
O3358       O  0.76298173  0.66668353  0.21660881    -0.34100
O3359       O  0.88270154  0.61649902  0.19321348    -0.35500
O3360       O  0.88303136  0.61829135  0.23139927    -0.39800
C3361       C  0.66651188  0.67208824  0.85966216    -0.13500
C3362       C  0.67929534  0.68106930  0.84333052     0.16900
C3363       C  0.69854664  0.69147205  0.85149200     0.03100
C3364       C  0.70594621  0.69236502  0.87536602    -0.12000
C3365       C  0.69404406  0.68324561  0.89179598    -0.03100
C3366       C  0.67349912  0.67312488  0.88381253     0.02400
C3367       C  0.66959076  0.68034156  0.81829914     0.09200
N3368       N  0.70922004  0.70169353  0.83606931     0.65600
H3369       H  0.72091477  0.70048101  0.88112903     0.18500
N3370       N  0.65992820  0.66375112  0.89972279     0.76100
H3371       H  0.65083614  0.66427075  0.85360790     0.10000
C3372       C  0.69173829  0.67758642  0.80003437     0.03700
C3373       C  0.68187536  0.67846507  0.77646908    -0.05000
C3374       C  0.65002990  0.68186100  0.77068881    -0.23400
C3375       C  0.62747761  0.68376122  0.78920905     0.13000
C3376       C  0.63754222  0.68310572  0.81264683    -0.12500
N3377       N  0.72392989  0.67346139  0.80509910     0.64600
H3378       H  0.69941040  0.67661637  0.76263173     0.12500
N3379       N  0.59417524  0.68627703  0.78466866     0.61300
H3380       H  0.62020710  0.68500239  0.82661410     0.08600
O3381       O  0.67267939  0.65250631  0.90145115    -0.40200
O3382       O  0.63151617  0.66545994  0.90710922    -0.39400
O3383       O  0.69143698  0.71165829  0.83321703    -0.39400
O3384       O  0.73884623  0.70257479  0.83132680    -0.37100
O3385       O  0.57461300  0.67680015  0.78461419    -0.38000
O3386       O  0.58352011  0.69789119  0.78612705    -0.34100
O3387       O  0.72957656  0.66136201  0.80798174    -0.35500
O3388       O  0.74703577  0.68106404  0.80040479    -0.39800
C3389       C  0.57508419  0.74722898  0.96895956    -0.13500
C3390       C  0.60723009  0.75146358  0.97044792     0.16900
C3391       C  0.61375740  0.76501891  0.97061067     0.03100
C3392       C  0.58844727  0.77402769  0.96917500    -0.12000
C3393       C  0.55614864  0.76990524  0.96787522    -0.03100
C3394       C  0.54954043  0.75629515  0.96785534     0.02400
C3395       C  0.63361628  0.74160966  0.97031090     0.09200
N3396       N  0.64587012  0.76983126  0.97314589     0.65600
H3397       H  0.59430025  0.78441452  0.96976756     0.18500
N3398       N  0.51735850  0.75148916  0.96601779     0.76100
H3399       H  0.56980512  0.73679388  0.96823683     0.10000
C3400       C  0.63510901  0.73159558  0.98740972     0.03700
C3401       C  0.65748506  0.72141143  0.98494293    -0.05000
C3402       C  0.67891712  0.72097758  0.96575789    -0.23400
C3403       C  0.67876014  0.73141006  0.94935918     0.13000
C3404       C  0.65605238  0.74158488  0.95172279    -0.12500
N3405       N  0.61399132  0.73160193  0.00734328     0.64600
H3406       H  0.65763303  0.71358584  0.99797503     0.12500
N3407       N  0.69959196  0.73132413  0.92929034     0.61300
H3408       H  0.65493419  0.74918259  0.93830318     0.08600
O3409       O  0.50341418  0.74711780  0.98417471    -0.40200
O3410       O  0.99772050  0.74855396  0.95114691    -0.39400
O3411       O  0.65988962  0.77486625  0.95558318    -0.39400
O3412       O  0.65661320  0.77203961  0.99354032    -0.37100
O3413       O  0.68960204  0.72657555  0.91012024    -0.38000
O3414       O  0.72411893  0.73862293  0.92917430    -0.34100
O3415       O  0.59062584  0.72369709  0.00792515    -0.35500
O3416       O  0.62297511  0.73706141  0.02616693    -0.39800
C3417       C  0.81146510  0.69645752  0.04923370    -0.13500
C3418       C  0.79603553  0.69039331  0.06832490     0.16900
C3419       C  0.76545988  0.68466128  0.06465481     0.03100
C3420       C  0.75167426  0.68473609  0.04211428    -0.12000
C3421       C  0.76745045  0.69053734  0.02281179    -0.03100
C3422       C  0.79768168  0.69661513  0.02673121     0.02400
C3423       C  0.81140283  0.69094102  0.09204686     0.09200
N3424       N  0.74824297  0.67851247  0.08348732     0.65600
H3425       H  0.72841919  0.68005880  0.03973149     0.18500
N3426       N  0.81468680  0.70318229  0.00826307     0.76100
H3427       H  0.83432972  0.70140180  0.05189307     0.10000
C3428       C  0.84336382  0.68659619  0.09586023     0.03700
C3429       C  0.85743544  0.68788949  0.11817302    -0.05000
C3430       C  0.84040792  0.69343105  0.13718968    -0.23400
C3431       C  0.80850728  0.69793445  0.13321001     0.13000
C3432       C  0.79459676  0.69672673  0.11083936    -0.12500
N3433       N  0.86162822  0.68049189  0.07746527     0.64600
H3434       H  0.88181131  0.68425446  0.12067634     0.12500
N3435       N  0.78952053  0.70356995  0.15167547     0.61300
H3436       H  0.77042471  0.70052632  0.10809295     0.08600
O3437       O  0.83809914  0.69744354  0.99838401    -0.40200
O3438       O  0.81164047  0.71547852  0.00606097    -0.39400
O3439       O  0.72461963  0.68445941  0.09268867    -0.39400
O3440       O  0.75105710  0.66626189  0.08646997    -0.37100
O3441       O  0.78787205  0.71592259  0.15356178    -0.38000
O3442       O  0.76905163  0.69652932  0.16221293    -0.34100
O3443       O  0.88390632  0.68687417  0.06756241    -0.35500
O3444       O  0.86105414  0.66813391  0.07543565    -0.39800
C3445       C  0.91383356  0.56738251  0.79208695    -0.13500
C3446       C  0.92912810  0.55852412  0.80756222     0.16900
C3447       C  0.95020482  0.54899957  0.79822068     0.03100
C3448       C  0.95615871  0.54857513  0.77401329    -0.12000
C3449       C  0.94134901  0.55745363  0.75835462    -0.03100
C3450       C  0.91985174  0.56694804  0.76762243     0.02400
C3451       C  0.91989916  0.55808464  0.83286588     0.09200
N3452       N  0.96470574  0.53925551  0.81296571     0.65600
H3453       H  0.97235926  0.54102591  0.76743811     0.18500
N3454       N  0.90430800  0.57625921  0.75255703     0.76100
H3455       H  0.89697145  0.57457268  0.79902544     0.10000
C3456       C  0.93961069  0.56315405  0.85092217     0.03700
C3457       C  0.93059481  0.56157956  0.87466192    -0.05000
C3458       C  0.90215075  0.55494571  0.88094693    -0.23400
C3459       C  0.88254910  0.54987463  0.86260391     0.13000
C3460       C  0.89155589  0.55153924  0.83900459    -0.12500
N3461       N  0.96858381  0.57007573  0.84549301     0.64600
H3462       H  0.94600832  0.56562470  0.88825142     0.12500
N3463       N  0.85369103  0.54273526  0.86745238     0.61300
H3464       H  0.87647607  0.54742537  0.82526006     0.08600
O3465       O  0.87719398  0.57360127  0.74379013    -0.40200
O3466       O  0.91942581  0.58628648  0.74556811    -0.39400
O3467       O  0.95145573  0.52815066  0.81488451    -0.39400
O3468       O  0.99388418  0.54047005  0.81870533    -0.37100
O3469       O  0.82688235  0.54858407  0.86623787    -0.38000
O3470       O  0.85444144  0.53032280  0.86733703    -0.34100
O3471       O  0.50498185  0.56752737  0.84757050    -0.35500
O3472       O  0.50079818  0.54623353  0.84878436    -0.39800
C3473       C  0.80308415  0.54363143  0.04572809    -0.13500
C3474       C  0.81291847  0.55368574  0.06093251     0.16900
C3475       C  0.83870466  0.56185237  0.05407860     0.03100
C3476       C  0.85372152  0.55995458  0.03211103    -0.12000
C3477       C  0.84346076  0.55003534  0.01659740    -0.03100
C3478       C  0.81792494  0.54173629  0.02380309     0.02400
C3479       C  0.79761470  0.55446980  0.08457262     0.09200
N3480       N  0.85046908  0.57189875  0.06936420     0.65600
H3481       H  0.87314310  0.56647175  0.02700212     0.18500
N3482       N  0.80709890  0.53113027  0.00936616     0.76100
H3483       H  0.78376962  0.53709898  0.05104018     0.10000
C3484       C  0.77537241  0.56443512  0.09075114     0.03700
C3485       C  0.75946378  0.56393665  0.11258815    -0.05000
C3486       C  0.76529806  0.55367030  0.12858852    -0.23400
C3487       C  0.78735320  0.54363674  0.12221026     0.13000
C3488       C  0.80317759  0.54414985  0.10043095    -0.12500
N3489       N  0.76783148  0.57488885  0.07485874     0.64600
H3490       H  0.74268475  0.57175452  0.11715900     0.12500
N3491       N  0.79303542  0.53256628  0.13718788     0.61300
H3492       H  0.81964610  0.53625743  0.09564677     0.08600
O3493       O  0.78127083  0.53240951  0.99789938    -0.40200
O3494       O  0.81858485  0.51976538  0.01262140    -0.39400
O3495       O  0.87375893  0.56931708  0.08285742    -0.39400
O3496       O  0.84382398  0.58376077  0.06490311    -0.37100
O3497       O  0.77649658  0.52228529  0.13447672    -0.38000
O3498       O  0.81863438  0.53201343  0.14909603    -0.34100
O3499       O  0.74384885  0.57369671  0.06142468    -0.35500
O3500       O  0.77858195  0.58624499  0.07903188    -0.39800
C3501       C  0.83048353  0.60914729  0.96441603    -0.13500
C3502       C  0.80868041  0.61254943  0.94670980     0.16900
C3503       C  0.79976261  0.60311668  0.92979565     0.03100
C3504       C  0.81257576  0.59037183  0.93101120    -0.12000
C3505       C  0.83472353  0.58697974  0.94860452    -0.03100
C3506       C  0.84375012  0.59653522  0.96545408     0.02400
C3507       C  0.79473857  0.62587954  0.94708471     0.09200
N3508       N  0.77792212  0.60635157  0.91128008     0.65600
H3509       H  0.80578032  0.58318107  0.91778513     0.18500
N3510       N  0.86553030  0.59350497  0.98417748     0.76100
H3511       H  0.83716642  0.61636738  0.97763793     0.10000
C3512       C  0.77019342  0.62898740  0.96321793     0.03700
C3513       C  0.75922311  0.64188734  0.96505619    -0.05000
C3514       C  0.77237819  0.65201450  0.95119454    -0.23400
C3515       C  0.79758420  0.64894546  0.93531110     0.13000
C3516       C  0.80839343  0.63587924  0.93329950    -0.12500
N3517       N  0.75642553  0.61914817  0.97811381     0.64600
H3518       H  0.74012182  0.64396352  0.97765418     0.12500
N3519       N  0.81228829  0.65885167  0.92108898     0.61300
H3520       H  0.82796040  0.63355405  0.92123368     0.08600
O3521       O  0.85429967  0.59052070  0.00415518    -0.40200
O3522       O  0.89452175  0.59709989  0.98253512    -0.39400
O3523       O  0.78893925  0.60909444  0.89112921    -0.39400
O3524       O  0.74851988  0.60348671  0.91349134    -0.37100
O3525       O  0.83812659  0.66409370  0.92795828    -0.38000
O3526       O  0.80400235  0.66003842  0.89981512    -0.34100
O3527       O  0.76547790  0.61831843  0.99927556    -0.35500
O3528       O  0.73062599  0.61361340  0.97195150    -0.39800
C3529       C  0.92574438  0.17025503  0.85663787    -0.13500
C3530       C  0.91798537  0.18022932  0.87282638     0.16900
C3531       C  0.90505634  0.19216232  0.86437633     0.03100
C3532       C  0.89914212  0.19372050  0.84025178    -0.12000
C3533       C  0.90681929  0.18375688  0.82394961    -0.03100
C3534       C  0.92053053  0.17193706  0.83238628     0.02400
C3535       C  0.92773889  0.17866436  0.89781474     0.09200
N3536       N  0.89998856  0.20312514  0.87973882     0.65600
H3537       H  0.88909152  0.20298197  0.83414908     0.18500
N3538       N  0.92870821  0.16144831  0.81673060     0.76100
H3539       H  0.93641665  0.16114139  0.86288504     0.10000
C3540       C  0.90546963  0.17812128  0.91666550     0.03700
C3541       C  0.91665341  0.17752498  0.93996854    -0.05000
C3542       C  0.94976934  0.17736755  0.94494346    -0.23400
C3543       C  0.97188491  0.17718608  0.92586947     0.13000
C3544       C  0.96068343  0.17789994  0.90271701    -0.12500
N3545       N  0.87154768  0.17779967  0.91254856     0.64600
H3546       H  0.89924171  0.17749939  0.95426026     0.12500
N3547       N  0.50636941  0.18753160  0.93102578     0.61300
H3548       H  0.97801305  0.17807206  0.88836066     0.08600
O3549       O  0.90906941  0.15214908  0.81378211    -0.40200
O3550       O  0.95763109  0.15999490  0.81031447    -0.39400
O3551       O  0.44793963  0.21322785  0.87397140    -0.39400
O3552       O  0.39648074  0.21274760  0.88157437    -0.37100
O3553       O  0.51389153  0.19953445  0.93215447    -0.38000
O3554       O  0.52829760  0.17902602  0.92837951    -0.34100
O3555       O  0.85791867  0.16677574  0.91063268    -0.35500
O3556       O  0.85472198  0.18772939  0.91786360    -0.39800
C3557       C  0.65687879  0.06052462  0.88003632    -0.13500
C3558       C  0.68176588  0.05885211  0.89652424     0.16900
C3559       C  0.71368816  0.05775417  0.88841920     0.03100
C3560       C  0.72013270  0.05820678  0.86429362    -0.12000
C3561       C  0.69534545  0.05937403  0.84751348    -0.03100
C3562       C  0.66329730  0.06078751  0.85568302     0.02400
C3563       C  0.67362148  0.05669807  0.92168467     0.09200
N3564       N  0.73963223  0.05505032  0.90421772     0.65600
H3565       H  0.74502286  0.05709685  0.85868773     0.18500
N3566       N  0.63688434  0.06181497  0.83970935     0.76100
H3567       H  0.63209822  0.06119054  0.88612247     0.10000
C3568       C  0.68139907  0.06584825  0.93945738     0.03700
C3569       C  0.67296147  0.06324306  0.96295405    -0.05000
C3570       C  0.65634683  0.05172646  0.96912316    -0.23400
C3571       C  0.64911452  0.04248995  0.95127894     0.13000
C3572       C  0.65782395  0.04504981  0.92789623    -0.12500
N3573       N  0.69605122  0.07815376  0.93381656     0.64600
H3574       H  0.67828581  0.07055549  0.97631142     0.12500
N3575       N  0.63350989  0.03033370  0.95660818     0.61300
H3576       H  0.65217410  0.03785403  0.91440114     0.08600
O3577       O  0.62134288  0.05158864  0.83441855    -0.40200
O3578       O  0.62429605  0.07294392  0.83604332    -0.39400
O3579       O  0.74687906  0.04322426  0.90851455    -0.39400
O3580       O  0.76026150  0.06387978  0.90802124    -0.37100
O3581       O  0.60369925  0.02918695  0.95285844    -0.38000
O3582       O  0.65035353  0.02014081  0.95987772    -0.34100
O3583       O  0.67823910  0.08790541  0.92924972    -0.35500
O3584       O  0.72496576  0.08011437  0.93959748    -0.39800
C3585       C  0.65418933  0.00211670  0.79889916    -0.13500
C3586       C  0.63402261  0.99953548  0.77955656     0.16900
C3587       C  0.63746129  0.00735117  0.75909140     0.03100
C3588       C  0.65942293  0.01776966  0.75878363    -0.12000
C3589       C  0.67890219  0.02055841  0.77829801    -0.03100
C3590       C  0.67671499  0.01240604  0.79836309     0.02400
C3591       C  0.60827279  0.98932321  0.78155875     0.09200
N3592       N  0.61889226  0.00486980  0.73840053     0.65600
H3593       H  0.66084399  0.02393314  0.74317377     0.18500
N3594       N  0.69519944  0.01506687  0.81900312     0.76100
H3595       H  0.65146465  0.99649513  0.81503470     0.10000
C3596       C  0.61504205  0.97641943  0.78930954     0.03700
C3597       C  0.59024431  0.96717939  0.79103865    -0.05000
C3598       C  0.55823271  0.97027713  0.78491108    -0.23400
C3599       C  0.55124692  0.98331258  0.77781758     0.13000
C3600       C  0.57609402  0.99265781  0.77647211    -0.12500
N3601       N  0.64718516  0.97229802  0.79456690     0.64600
H3602       H  0.59657724  0.95729071  0.79660567     0.12500
N3603       N  0.51931189  0.98726085  0.77166636     0.61300
H3604       H  0.57006525  0.00266524  0.77146042     0.08600
O3605       O  0.71974648  0.00812604  0.82331674    -0.40200
O3606       O  0.68303072  0.02197920  0.83523302    -0.39400
O3607       O  0.59614199  0.01259507  0.73315967    -0.39400
O3608       O  0.63033912  0.99740335  0.72269567    -0.37100
O3609       O  0.50196822  0.99294870  0.78688042    -0.38000
O3610       O  0.51167832  0.98802441  0.75019770    -0.34100
O3611       O  0.65512647  0.97048046  0.81577737    -0.35500
O3612       O  0.66419547  0.96727883  0.77842939    -0.39800
C3613       C  0.80575936  0.10815279  0.78340689    -0.13500
C3614       C  0.78348735  0.11853385  0.78133967     0.16900
C3615       C  0.75038708  0.11563622  0.78101411     0.03100
C3616       C  0.74026156  0.10254832  0.78221388    -0.12000
C3617       C  0.76244592  0.09203269  0.78322139    -0.03100
C3618       C  0.79564199  0.09499286  0.78427197     0.02400
C3619       C  0.79566335  0.13191266  0.77601956     0.09200
N3620       N  0.72677748  0.12571039  0.77752350     0.65600
H3621       H  0.71459827  0.10063275  0.78143988     0.18500
N3622       N  0.81949859  0.08484479  0.78486293     0.76100
H3623       H  0.83136138  0.11027125  0.78334083     0.10000
C3624       C  0.79189234  0.14269600  0.79150420     0.03700
C3625       C  0.80589464  0.15485254  0.78582970    -0.05000
C3626       C  0.82423662  0.15636908  0.76521600    -0.23400
C3627       C  0.82697212  0.14569422  0.74943800     0.13000
C3628       C  0.81259795  0.13367693  0.75489011    -0.12500
N3629       N  0.77619271  0.14125317  0.81377740     0.64600
H3630       H  0.80400976  0.16291986  0.79830275     0.12500
N3631       N  0.84399272  0.14693074  0.72764167     0.61300
H3632       H  0.81518380  0.12552701  0.74264712     0.08600
O3633       O  0.83317141  0.08216302  0.80411503    -0.40200
O3634       O  0.83217018  0.08102421  0.76580770    -0.39400
O3635       O  0.71868752  0.12868621  0.75676928    -0.39400
O3636       O  0.70824882  0.12874622  0.79433825    -0.37100
O3637       O  0.87259188  0.14275562  0.72613748    -0.38000
O3638       O  0.82839542  0.14927556  0.70904864    -0.34100
O3639       O  0.79265072  0.13772940  0.83135974    -0.35500
O3640       O  0.74953414  0.14695446  0.81717286    -0.39800
C3641       C  0.94455452  0.07165463  0.43599609    -0.13500
C3642       C  0.92031152  0.06934611  0.41920872     0.16900
C3643       C  0.88939678  0.06582891  0.42709231     0.03100
C3644       C  0.88345212  0.06434601  0.45113675    -0.12000
C3645       C  0.90784356  0.06595946  0.46808418    -0.03100
C3646       C  0.93860882  0.07007829  0.46030875     0.02400
C3647       C  0.92904158  0.06799167  0.39392865     0.09200
N3648       N  0.86445704  0.06246834  0.41089281     0.65600
H3649       H  0.85941091  0.06136867  0.45642840     0.18500
N3650       N  0.96444211  0.07203872  0.47649142     0.76100
H3651       H  0.96867756  0.07413598  0.43009134     0.10000
C3652       C  0.91810241  0.07665990  0.37617990     0.03700
C3653       C  0.92547708  0.07407867  0.35238524    -0.05000
C3654       C  0.94383224  0.06299847  0.34589882    -0.23400
C3655       C  0.95447453  0.05435450  0.36388165     0.13000
C3656       C  0.94708985  0.05695151  0.38745035    -0.12500
N3657       N  0.90057343  0.08833134  0.38201762     0.64600
H3658       H  0.91727342  0.08090876  0.33896861     0.12500
N3659       N  0.97093204  0.04236435  0.35856822     0.61300
H3660       H  0.95490610  0.05003648  0.40087583     0.08600
O3661       O  0.97128307  0.08358905  0.48285053    -0.40200
O3662       O  0.98495782  0.06299129  0.47935446    -0.39400
O3663       O  0.86188708  0.05066200  0.40431157    -0.39400
O3664       O  0.84051635  0.07005891  0.40883266    -0.37100
O3665       O  0.95549116  0.03172787  0.35991028    -0.38000
O3666       O  0.00127782  0.04204063  0.35970014    -0.34100
O3667       O  0.91572392  0.09899096  0.38433494    -0.35500
O3668       O  0.87058007  0.08870889  0.37854254    -0.39800
C3669       C  0.79121066  0.04916702  0.62480189    -0.13500
C3670       C  0.80580777  0.05514067  0.64427227     0.16900
C3671       C  0.83688017  0.06060466  0.64129705     0.03100
C3672       C  0.85203739  0.06035155  0.61912510    -0.12000
C3673       C  0.83727659  0.05455495  0.59946601    -0.03100
C3674       C  0.80649282  0.04872689  0.60269629     0.02400
C3675       C  0.78955150  0.05458322  0.66785629     0.09200
N3676       N  0.85330137  0.06663792  0.66054425     0.65600
H3677       H  0.87557481  0.06487275  0.61731084     0.18500
N3678       N  0.79050254  0.04204509  0.58394667     0.76100
H3679       H  0.76795439  0.04444097  0.62689453     0.10000
C3680       C  0.75800221  0.05946314  0.67177703     0.03700
C3681       C  0.74393048  0.05865105  0.69432732    -0.05000
C3682       C  0.76037526  0.05287982  0.71336361    -0.23400
C3683       C  0.79148181  0.04751866  0.70904142     0.13000
C3684       C  0.80548819  0.04843082  0.68660092    -0.12500
N3685       N  0.74012386  0.06554595  0.65323432     0.64600
H3686       H  0.72003078  0.06277643  0.69697882     0.12500
N3687       N  0.80947843  0.04110319  0.72716078     0.61300
H3688       H  0.82913012  0.04410028  0.68375031     0.08600
O3689       O  0.76778688  0.04773624  0.57323159    -0.40200
O3690       O  0.79371903  0.02974054  0.58203713    -0.39400
O3691       O  0.87589361  0.06047628  0.67055430    -0.39400
O3692       O  0.85089909  0.07890806  0.66343696    -0.37100
O3693       O  0.80851791  0.02872717  0.72875723    -0.38000
O3694       O  0.83166765  0.04729082  0.73745882    -0.34100
O3695       O  0.71779181  0.05919975  0.64341785    -0.35500
O3696       O  0.74101921  0.07788823  0.65097645    -0.39800
C3697       C  0.66450131  0.17840058  0.41474071    -0.13500
C3698       C  0.68619390  0.18382473  0.39838123     0.16900
C3699       C  0.71369676  0.19035637  0.40680432     0.03100
C3700       C  0.71887043  0.19142384  0.43108203    -0.12000
C3701       C  0.69680494  0.18636578  0.44765196    -0.03100
C3702       C  0.66939353  0.17964210  0.43913962     0.02400
C3703       C  0.67690248  0.18438982  0.37311935     0.09200
N3704       N  0.73535094  0.19689091  0.39111004     0.65600
H3705       H  0.74008597  0.19667977  0.43692512     0.18500
N3706       N  0.64556004  0.17449701  0.45479147     0.76100
H3707       H  0.64288453  0.17357154  0.40847990     0.10000
C3708       C  0.69433884  0.17801919  0.35498064     0.03700
C3709       C  0.68406903  0.17916355  0.33149904    -0.05000
C3710       C  0.65640154  0.18644665  0.32557783    -0.23400
C3711       C  0.63901379  0.19277573  0.34393582     0.13000
C3712       C  0.64946063  0.19169765  0.36724352    -0.12500
N3713       N  0.72156037  0.16987685  0.36006821     0.64600
H3714       H  0.69762935  0.17409516  0.31784989     0.12500
N3715       N  0.61071640  0.20041033  0.33941268     0.61300
H3716       H  0.63591716  0.19669164  0.38100944     0.08600
O3717       O  0.62070715  0.18126817  0.45913873    -0.40200
O3718       O  0.64529785  0.16231930  0.45911064    -0.39400
O3719       O  0.72928508  0.20858399  0.38505036    -0.39400
O3720       O  0.76373509  0.19256957  0.38893278    -0.37100
O3721       O  0.58340982  0.19513274  0.34168779    -0.38000
O3722       O  0.61270477  0.21279088  0.33885798    -0.34100
O3723       O  0.71711451  0.15778086  0.36381957    -0.35500
O3724       O  0.74921364  0.17370275  0.35390290    -0.39800
C3725       C  0.64560187  0.24612678  0.51458303    -0.13500
C3726       C  0.61272848  0.24302771  0.51296810     0.16900
C3727       C  0.60325942  0.22979974  0.51510017     0.03100
C3728       C  0.62654606  0.21995585  0.51818048    -0.12000
C3729       C  0.65964935  0.22289247  0.51882565    -0.03100
C3730       C  0.66905172  0.23624461  0.51751855     0.02400
C3731       C  0.58934908  0.25352345  0.50647668     0.09200
N3732       N  0.57036239  0.22603907  0.51235291     0.65600
H3733       H  0.61855545  0.20981892  0.51891806     0.18500
N3734       N  0.70209128  0.24000164  0.51925418     0.76100
H3735       H  0.65316985  0.25629247  0.51301539     0.10000
C3736       C  0.56655328  0.25863726  0.52257173     0.03700
C3737       C  0.54615277  0.26899164  0.51569078    -0.05000
C3738       C  0.54872808  0.27471651  0.49322797    -0.23400
C3739       C  0.57115706  0.26940895  0.47704145     0.13000
C3740       C  0.59090212  0.25883725  0.48369919    -0.12500
N3741       N  0.56582347  0.25431648  0.54652875     0.64600
H3742       H  0.52980812  0.27321459  0.52862003     0.12500
N3743       N  0.57438737  0.27469573  0.45383030     0.61300
H3744       H  0.60821868  0.25493721  0.47112706     0.08600
O3745       O  0.71294348  0.24365142  0.53893936    -0.40200
O3746       O  0.71747177  0.24285158  0.50074384    -0.39400
O3747       O  0.56051074  0.22271354  0.49220759    -0.39400
O3748       O  0.55441457  0.22263227  0.53028639    -0.37100
O3749       O  0.59673239  0.28274117  0.44953269    -0.38000
O3750       O  0.56036473  0.26907556  0.43691606    -0.34100
O3751       O  0.58244376  0.26038303  0.56158558    -0.35500
O3752       O  0.54284449  0.24719764  0.55347779    -0.39800
C3753       C  0.83194485  0.18599065  0.65055390    -0.13500
C3754       C  0.80536263  0.19446327  0.64856022     0.16900
C3755       C  0.79651760  0.20232250  0.66789666     0.03100
C3756       C  0.81388991  0.20145870  0.68892717    -0.12000
C3757       C  0.84027029  0.19279929  0.69134789    -0.03100
C3758       C  0.84942843  0.18507750  0.67167319     0.02400
C3759       C  0.78674519  0.19479859  0.62633749     0.09200
N3760       N  0.76952197  0.21104959  0.66660544     0.65600
H3761       H  0.80620224  0.20753984  0.70362761     0.18500
N3762       N  0.87567250  0.17598987  0.67294036     0.76100
H3763       H  0.83890257  0.17989987  0.63566692     0.10000
C3764       C  0.79467705  0.20363430  0.60821812     0.03700
C3765       C  0.77749788  0.20343112  0.58708138    -0.05000
C3766       C  0.75252586  0.19434520  0.58315720    -0.23400
C3767       C  0.74452502  0.18547435  0.60150709     0.13000
C3768       C  0.76150543  0.18586802  0.62290918    -0.12500
N3769       N  0.82095677  0.21256116  0.61066024     0.64600
H3770       H  0.78453494  0.21028449  0.57335590     0.12500
N3771       N  0.72048734  0.17560598  0.59843547     0.61300
H3772       H  0.75547609  0.17892768  0.63676084     0.08600
O3773       O  0.90276463  0.17925122  0.66472201    -0.40200
O3774       O  0.87004591  0.16401876  0.67706625    -0.39400
O3775       O  0.74279174  0.20748593  0.67506040    -0.39400
O3776       O  0.77411594  0.22305513  0.66209999    -0.37100
O3777       O  0.72895626  0.16415702  0.59238056    -0.38000
O3778       O  0.69283919  0.17737723  0.60718805    -0.34100
O3779       O  0.84808300  0.20948845  0.60216782    -0.35500
O3780       O  0.81529490  0.22440465  0.61592032    -0.39800
C3781       C  0.79288887  0.10973469  0.51769972    -0.13500
C3782       C  0.81512525  0.12014295  0.51630430     0.16900
C3783       C  0.84805868  0.11736448  0.51996438     0.03100
C3784       C  0.85787160  0.10453231  0.52499490    -0.12000
C3785       C  0.83579083  0.09407513  0.52611497    -0.03100
C3786       C  0.80293283  0.09676143  0.52208761     0.02400
C3787       C  0.80321002  0.13387135  0.51302098     0.09200
N3788       N  0.87211609  0.12735272  0.51808612     0.65600
H3789       H  0.88341186  0.10274022  0.52752371     0.18500
N3790       N  0.77934936  0.08658175  0.52295122     0.76100
H3791       H  0.76734029  0.11170119  0.51592151     0.10000
C3792       C  0.78038796  0.13712039  0.49547111     0.03700
C3793       C  0.76617105  0.14961483  0.49528040    -0.05000
C3794       C  0.77502325  0.15918711  0.51172352    -0.23400
C3795       C  0.79914068  0.15631114  0.52832204     0.13000
C3796       C  0.81255451  0.14366104  0.52911878    -0.12500
N3797       N  0.77121618  0.12786749  0.47777852     0.64600
H3798       H  0.74762719  0.15180120  0.48239464     0.12500
N3799       N  0.80857492  0.16579455  0.54553408     0.61300
H3800       H  0.82919431  0.14133151  0.54320411     0.08600
O3801       O  0.76912558  0.08173928  0.50392631    -0.40200
O3802       O  0.76353143  0.08480663  0.54169595    -0.39400
O3803       O  0.88604116  0.13130014  0.53651212    -0.39400
O3804       O  0.88520427  0.12941768  0.49834238    -0.37100
O3805       O  0.79526686  0.16573423  0.56554900    -0.38000
O3806       O  0.83461050  0.17197993  0.54273065    -0.34100
O3807       O  0.74347424  0.12283935  0.47857448    -0.35500
O3808       O  0.78683768  0.12750286  0.45868550    -0.39800
C3809       C  0.82459057  0.31644897  0.08676857    -0.13500
C3810       C  0.80455732  0.30973153  0.10271225     0.16900
C3811       C  0.77884999  0.30226317  0.09382344     0.03100
C3812       C  0.77419423  0.30128865  0.06952693    -0.12000
C3813       C  0.79435788  0.30779617  0.05332601    -0.03100
C3814       C  0.81957308  0.31568593  0.06228647     0.02400
C3815       C  0.81142791  0.31010589  0.12843290     0.09200
N3816       N  0.75767890  0.29527162  0.10921862     0.65600
H3817       H  0.75441063  0.29524601  0.06336461     0.18500
N3818       N  0.83951674  0.32335163  0.04704898     0.76100
H3819       H  0.84415214  0.32245724  0.09342471     0.10000
C3820       C  0.84050051  0.30500464  0.13728364     0.03700
C3821       C  0.84590195  0.30470158  0.16151480    -0.05000
C3822       C  0.82290735  0.30938876  0.17776436    -0.23400
C3823       C  0.79409391  0.31498017  0.16887651     0.13000
C3824       C  0.78859193  0.31520230  0.14438298    -0.12500
N3825       N  0.86431434  0.29950019  0.12194179     0.64600
H3826       H  0.86855253  0.30055608  0.16759667     0.12500
N3827       N  0.77007496  0.32031030  0.18424295     0.61300
H3828       H  0.76623193  0.31935614  0.13775433     0.08600
O3829       O  0.86798040  0.31958939  0.04293704    -0.40200
O3830       O  0.83184360  0.33515605  0.04294225    -0.39400
O3831       O  0.72997643  0.29989238  0.11334100    -0.39400
O3832       O  0.76341941  0.28334292  0.11377189    -0.37100
O3833       O  0.76914586  0.33257665  0.18762745    -0.38000
O3834       O  0.74564408  0.31348724  0.18922225    -0.34100
O3835       O  0.88967647  0.30590606  0.11773638    -0.35500
O3836       O  0.86368067  0.28733502  0.11756359    -0.39800
C3837       C  0.91533680  0.23534173  0.97818258    -0.13500
C3838       C  0.89171279  0.23900714  0.99475093     0.16900
C3839       C  0.88995502  0.23201397  0.01621570     0.03100
C3840       C  0.91133524  0.22163971  0.02064250    -0.12000
C3841       C  0.93471226  0.21786518  0.00405732    -0.03100
C3842       C  0.93666185  0.22485429  0.98255866     0.02400
C3843       C  0.86871942  0.24991062  0.98928542     0.09200
N3844       N  0.86647863  0.23526134  0.03374141     0.65600
H3845       H  0.90916557  0.21628398  0.03712823     0.18500
N3846       N  0.95803307  0.22073002  0.96418353     0.76100
H3847       H  0.91642752  0.24032332  0.96128419     0.10000
C3848       C  0.87974243  0.26256990  0.98324419     0.03700
C3849       C  0.85767996  0.27279657  0.97963181    -0.05000
C3850       C  0.82425062  0.27084979  0.98188430    -0.23400
C3851       C  0.81308292  0.25795854  0.98642870     0.13000
C3852       C  0.83530833  0.24768166  0.99009123    -0.12500
N3853       N  0.91337459  0.26541961  0.98187159     0.64600
H3854       H  0.86714012  0.28252131  0.97594217     0.12500
N3855       N  0.77946182  0.25502302  0.98691432     0.61300
H3856       H  0.82634777  0.23785670  0.99358534     0.08600
O3857       O  0.98289663  0.22742359  0.95984293    -0.40200
O3858       O  0.44468102  0.21166720  0.95016846    -0.39400
O3859       O  0.84209903  0.22799874  0.03621229    -0.39400
O3860       O  0.87392097  0.24310357  0.05005250    -0.37100
O3861       O  0.76598373  0.25114914  0.96826735    -0.38000
O3862       O  0.76569931  0.25311736  0.00646613    -0.34100
O3863       O  0.92638762  0.26686559  0.96191727    -0.35500
O3864       O  0.92775627  0.26953158  0.99997411    -0.39800
C3865       C  0.58251567  0.43401376  0.06253265    -0.13500
C3866       C  0.55420020  0.42739773  0.06865429     0.16900
C3867       C  0.53435005  0.42241089  0.05062548     0.03100
C3868       C  0.54350281  0.42384614  0.02701231    -0.12000
C3869       C  0.57179699  0.43054375  0.02077518    -0.03100
C3870       C  0.59130774  0.43578697  0.03896049     0.02400
C3871       C  0.54402140  0.42742250  0.09368504     0.09200
N3872       N  0.50463570  0.41600428  0.05596581     0.65600
H3873       H  0.52799853  0.41981930  0.01345068     0.18500
N3874       N  0.61949136  0.44334725  0.03395876     0.76100
H3875       H  0.59730119  0.43837761  0.07620414     0.10000
C3876       C  0.56365194  0.42216782  0.11165622     0.03700
C3877       C  0.55526428  0.42407004  0.13533523    -0.05000
C3878       C  0.52743917  0.43115425  0.14163203    -0.23400
C3879       C  0.50750065  0.43619610  0.12344614     0.13000
C3880       C  0.51605121  0.43431187  0.09986984    -0.12500
N3881       N  0.59207104  0.41481359  0.10613921     0.64600
H3882       H  0.57089565  0.42005216  0.14887346     0.12500
N3883       N  0.47905883  0.44366473  0.12842576     0.61300
H3884       H  0.50126429  0.43875790  0.08624093     0.08600
O3885       O  0.64694365  0.43825718  0.03695403    -0.40200
O3886       O  0.61704632  0.45567673  0.03195089    -0.39400
O3887       O  0.47848625  0.42212950  0.05287105    -0.39400
O3888       O  0.99139981  0.41061364  0.05719964    -0.37100
O3889       O  0.48049173  0.45606526  0.12857285    -0.38000
O3890       O  0.45193226  0.43814289  0.12722275    -0.34100
O3891       O  0.61932066  0.42002686  0.10904392    -0.35500
O3892       O  0.59017968  0.40248797  0.10396265    -0.39800
C3893       C  0.52298627  0.48711395  0.94942370    -0.13500
C3894       C  0.49002598  0.48398850  0.94945753     0.16900
C3895       C  0.48086991  0.47074364  0.94689838     0.03100
C3896       C  0.50447203  0.46094150  0.94510377    -0.12000
C3897       C  0.53753944  0.46394833  0.94607739    -0.03100
C3898       C  0.54669795  0.47728015  0.94790735     0.02400
C3899       C  0.96565354  0.49486976  0.95293743     0.09200
N3900       N  0.94830429  0.46703089  0.95098737     0.65600
H3901       H  0.49661373  0.45079955  0.94382549     0.18500
N3902       N  0.57980706  0.48105796  0.94808766     0.76100
H3903       H  0.53042191  0.49731472  0.95055529     0.10000
C3904       C  0.96652745  0.50436383  0.97101999     0.03700
C3905       C  0.94510982  0.51498432  0.97060730    -0.05000
C3906       C  0.92219365  0.51638035  0.95262081    -0.23400
C3907       C  0.92014736  0.50656600  0.93513417     0.13000
C3908       C  0.94200458  0.49598790  0.93532871    -0.12500
N3909       N  0.48814127  0.50170649  0.98995988     0.64600
H3910       H  0.94677615  0.52235823  0.98437359     0.12500
N3911       N  0.89775169  0.50766544  0.91616533     0.61300
H3912       H  0.94130060  0.48889031  0.92108067     0.08600
O3913       O  0.59302220  0.48396659  0.96738652    -0.40200
O3914       O  0.59330406  0.48428176  0.92899887    -0.39400
O3915       O  0.93444468  0.46301753  0.93258935    -0.39400
O3916       O  0.93583585  0.46464894  0.97083151    -0.37100
O3917       O  0.90656981  0.51295321  0.89709759    -0.38000
O3918       O  0.87239724  0.50085524  0.91655316    -0.34100
O3919       O  0.51283005  0.50882799  0.99194252    -0.35500
O3920       O  0.47848515  0.49518878  0.00752338    -0.39800
C3921       C  0.67565905  0.35240088  0.98324305    -0.13500
C3922       C  0.69540686  0.36350831  0.98064552     0.16900
C3923       C  0.72885510  0.36217897  0.98379846     0.03100
C3924       C  0.74205612  0.34979569  0.98794300    -0.12000
C3925       C  0.72273915  0.33846079  0.98860359    -0.03100
C3926       C  0.68897642  0.33989834  0.98708883     0.02400
C3927       C  0.68085457  0.37635294  0.97446455     0.09200
N3928       N  0.75006311  0.37313885  0.98128035     0.65600
H3929       H  0.76805481  0.34903473  0.98952065     0.18500
N3930       N  0.66797593  0.32882424  0.98849138     0.76100
H3931       H  0.64969958  0.35340432  0.98180290     0.10000
C3932       C  0.66151471  0.37777904  0.95423519     0.03700
C3933       C  0.64697212  0.38987061  0.94941616    -0.05000
C3934       C  0.65164452  0.40075706  0.96417417    -0.23400
C3935       C  0.67129101  0.39940247  0.98426179     0.13000
C3936       C  0.68565540  0.38723553  0.98923529    -0.12500
N3937       N  0.65673846  0.36709497  0.93825582     0.64600
H3938       H  0.63162661  0.39072372  0.93401571     0.12500
N3939       N  0.67453587  0.40987156  0.00084704     0.61300
H3940       H  0.69978738  0.38616313  0.00520031     0.08600
O3941       O  0.65670247  0.32398795  0.96978352    -0.40200
O3942       O  0.65495617  0.32602365  0.00796906    -0.39400
O3943       O  0.76308632  0.37795346  0.99938648    -0.39400
O3944       O  0.76176697  0.37569090  0.96125673    -0.37100
O3945       O  0.65516399  0.41056939  0.01798132    -0.38000
O3946       O  0.70045456  0.41630638  0.00151749    -0.34100
O3947       O  0.63032709  0.36098128  0.93849262    -0.35500
O3948       O  0.67541362  0.36579719  0.92082574    -0.39800
C3949       C  0.54597915  0.32066414  0.64664556    -0.13500
C3950       C  0.55565369  0.31087536  0.63057702     0.16900
C3951       C  0.57245031  0.29980060  0.63920981     0.03100
C3952       C  0.57988037  0.29888859  0.66316295    -0.12000
C3953       C  0.57094218  0.30877670  0.67925369    -0.03100
C3954       C  0.55323541  0.31969380  0.67078876     0.02400
C3955       C  0.54887127  0.31246670  0.60490457     0.09200
N3956       N  0.58185121  0.28926749  0.62396508     0.65600
H3957       H  0.59310002  0.29028187  0.66917724     0.18500
N3958       N  0.54378554  0.33017137  0.68609511     0.76100
H3959       H  0.53344276  0.32936095  0.64030156     0.10000
C3960       C  0.51730961  0.31453257  0.59657136     0.03700
C3961       C  0.51164256  0.31546963  0.57236280    -0.05000
C3962       C  0.53671727  0.31429872  0.55571579    -0.23400
C3963       C  0.56853995  0.31283510  0.56405605     0.13000
C3964       C  0.57428471  0.31196972  0.58844116    -0.12500
N3965       N  0.49042224  0.31504328  0.61233795     0.64600
H3966       H  0.98780537  0.31892461  0.56625910     0.12500
N3967       N  0.59511196  0.31173744  0.54815190     0.61300
H3968       H  0.59888780  0.31079471  0.59456575     0.08600
O3969       O  0.01851712  0.33265558  0.69270565    -0.40200
O3970       O  0.56131070  0.34025806  0.68752573    -0.39400
O3971       O  0.61099838  0.28820556  0.61784823    -0.39400
O3972       O  0.56349633  0.27947379  0.62181869    -0.37100
O3973       O  0.61172850  0.32180251  0.54362139    -0.38000
O3974       O  0.60622713  0.30049841  0.54321408    -0.34100
O3975       O  0.98180566  0.32962121  0.61605739    -0.35500
O3976       O  0.47523016  0.30460929  0.61687545    -0.39800
C3977       C  0.49281410  0.26504279  0.75032793    -0.13500
C3978       C  0.50402535  0.25217420  0.75305164     0.16900
C3979       C  0.53743446  0.24987979  0.75495027     0.03100
C3980       C  0.55910319  0.26051435  0.75414882    -0.12000
C3981       C  0.54783441  0.27352269  0.75163352    -0.03100
C3982       C  0.51415792  0.27564149  0.74939157     0.02400
C3983       C  0.97990980  0.24171388  0.75235789     0.09200
N3984       N  0.04318495  0.23898219  0.77390118     0.65600
H3985       H  0.58471196  0.25861037  0.75578838     0.18500
N3986       N  0.50118973  0.28840368  0.74460051     0.76100
H3987       H  0.46720458  0.26684970  0.74817336     0.10000
C3988       C  0.95197227  0.24192783  0.76651444     0.03700
C3989       C  0.93009146  0.23145390  0.76552983    -0.05000
C3990       C  0.93540746  0.22069385  0.75045335    -0.23400
C3991       C  0.96279015  0.22082582  0.73552214     0.13000
C3992       C  0.98475981  0.23123460  0.73674269    -0.12500
N3993       N  0.45877215  0.24722195  0.79135250     0.64600
H3994       H  0.90926456  0.23158726  0.77713027     0.12500
N3995       N  0.96809412  0.21073498  0.71841115     0.61300
H3996       H  0.00566765  0.23120704  0.72520803     0.08600
O3997       O  0.48637484  0.29451510  0.76068490    -0.40200
O3998       O  0.49790362  0.29204967  0.72347722    -0.39400
O3999       O  0.05761139  0.23007606  0.76249310    -0.39400
O4000       O  0.03119978  0.23634819  0.79380730    -0.37100
O4001       O  0.95876135  0.21254826  0.69750825    -0.38000
O4002       O  0.98819654  0.20170843  0.72266269    -0.34100
O4003       O  0.43996848  0.25693824  0.79334119    -0.35500
O4004       O  0.47329921  0.24294577  0.80931162    -0.39800
C4005       C  0.69799739  0.29980898  0.83307633    -0.13500
C4006       C  0.68152040  0.30374135  0.85340449     0.16900
C4007       C  0.64899578  0.30764811  0.85155570     0.03100
C4008       C  0.63339286  0.30727172  0.82960285    -0.12000
C4009       C  0.64969733  0.30316475  0.80911099    -0.03100
C4010       C  0.68273813  0.29961897  0.81107391     0.02400
C4011       C  0.69906870  0.30365228  0.87619699     0.09200
N4012       N  0.63154376  0.31213743  0.87173509     0.65600
H4013       H  0.60832182  0.31026462  0.82862948     0.18500
N4014       N  0.70177008  0.29637227  0.79086522     0.76100
H4015       H  0.72320624  0.29701206  0.83425264     0.10000
C4016       C  0.70093885  0.29213746  0.88991596     0.03700
C4017       C  0.71917045  0.29200056  0.91062826    -0.05000
C4018       C  0.73613714  0.30316104  0.91812675    -0.23400
C4019       C  0.73471303  0.31468901  0.90416181     0.13000
C4020       C  0.71630672  0.31481110  0.88335485    -0.12500
N4021       N  0.68424045  0.28049231  0.88311511     0.64600
H4022       H  0.71969055  0.28308333  0.92116494     0.12500
N4023       N  0.75015873  0.32654090  0.91147765     0.61300
H4024       H  0.71528757  0.32370458  0.87278105     0.08600
O4025       O  0.70880794  0.28448529  0.78694556    -0.40200
O4026       O  0.71797779  0.30529227  0.78094733    -0.39400
O4027       O  0.62824682  0.32434217  0.87506989    -0.39400
O4028       O  0.61331637  0.30424822  0.88252562    -0.37100
O4029       O  0.77654774  0.32977967  0.90207409    -0.38000
O4030       O  0.73418992  0.33504485  0.92279160    -0.34100
O4031       O  0.69957712  0.27135181  0.87300764    -0.35500
O4032       O  0.65700703  0.27810988  0.89204267    -0.39800
C4033       C  0.82545126  0.43628025  0.61176182    -0.13500
C4034       C  0.80219440  0.43706970  0.59385910     0.16900
C4035       C  0.76936524  0.43675745  0.60008190     0.03100
C4036       C  0.76038478  0.43606107  0.62373678    -0.12000
C4037       C  0.78339799  0.43575769  0.64186750    -0.03100
C4038       C  0.81642177  0.43560166  0.63563405     0.02400
C4039       C  0.81221505  0.43806874  0.56876741     0.09200
N4040       N  0.74472393  0.43778780  0.58263794     0.65600
H4041       H  0.73482010  0.43607195  0.62789244     0.18500
N4042       N  0.84104552  0.43508030  0.65314275     0.76100
H4043       H  0.85087728  0.43622094  0.60716381     0.10000
C4044       C  0.83116789  0.44860758  0.56060833     0.03700
C4045       C  0.83938007  0.44941820  0.53673317    -0.05000
C4046       C  0.82921781  0.43986770  0.52044160    -0.23400
C4047       C  0.81071153  0.42916521  0.52875908     0.13000
C4048       C  0.80238271  0.42840268  0.55269214    -0.12500
N4049       N  0.84155245  0.45877070  0.57620814     0.64600
H4050       H  0.85369104  0.45773752  0.53090391     0.12500
N4051       N  0.80127432  0.41871522  0.51347846     0.61300
H4052       H  0.78841733  0.42005789  0.55886067     0.08600
O4053       O  0.85522012  0.44553702  0.65901212    -0.40200
O4054       O  0.85356758  0.42412768  0.65832369    -0.39400
O4055       O  0.72880867  0.42769345  0.57714128    -0.39400
O4056       O  0.73400228  0.44900579  0.57715382    -0.37100
O4057       O  0.81910125  0.40868031  0.51169962    -0.38000
O4058       O  0.77244875  0.41810715  0.50657226    -0.34100
O4059       O  0.87045422  0.45892401  0.58304489    -0.35500
O4060       O  0.82440745  0.46895498  0.57866260    -0.39800
C4061       C  0.83011957  0.49010120  0.71603416    -0.13500
C4062       C  0.83386782  0.49408416  0.69243658     0.16900
C4063       C  0.81388135  0.48829921  0.67514497     0.03100
C4064       C  0.79146071  0.47865986  0.68175747    -0.12000
C4065       C  0.78956343  0.47406178  0.70503507    -0.03100
C4066       C  0.80890899  0.47999853  0.72234299     0.02400
C4067       C  0.86033845  0.50353896  0.68681587     0.09200
N4068       N  0.81830639  0.49087814  0.65059380     0.65600
H4069       H  0.77750795  0.47384430  0.66809317     0.18500
N4070       N  0.80797256  0.47566831  0.74627776     0.76100
H4071       H  0.84491172  0.49450927  0.72965084     0.10000
C4072       C  0.85496929  0.51567643  0.67534583     0.03700
C4073       C  0.87987030  0.52491811  0.67391531    -0.05000
C4074       C  0.91022187  0.52266214  0.68425113    -0.23400
C4075       C  0.91610166  0.51024893  0.69460098     0.13000
C4076       C  0.89140435  0.50085135  0.69553758    -0.12500
N4077       N  0.82386725  0.51937182  0.66681662     0.64600
H4078       H  0.87459592  0.53431200  0.66567168     0.12500
N4079       N  0.94616226  0.50724437  0.70555989     0.61300
H4080       H  0.89615383  0.49152766  0.70420657     0.08600
O4081       O  0.79129291  0.48202326  0.76103326    -0.40200
O4082       O  0.82942666  0.46785525  0.75358153    -0.39400
O4083       O  0.84041021  0.48484445  0.63971410    -0.39400
O4084       O  0.79512827  0.49561771  0.63896270    -0.37100
O4085       O  0.94906476  0.50887447  0.72749587    -0.38000
O4086       O  0.96628460  0.50010156  0.69478715    -0.34100
O4087       O  0.80405358  0.52457392  0.68093927    -0.35500
O4088       O  0.82025332  0.52124181  0.64498980    -0.39800
C4089       C  0.66062901  0.44375726  0.79897331    -0.13500
C4090       C  0.67749033  0.43851909  0.81815141     0.16900
C4091       C  0.70960490  0.43433388  0.81476163     0.03100
C4092       C  0.72407939  0.43535719  0.79243745    -0.12000
C4093       C  0.70714183  0.44040320  0.77297278    -0.03100
C4094       C  0.67485096  0.44466289  0.77656329     0.02400
C4095       C  0.66083465  0.43735252  0.84134069     0.09200
N4096       N  0.72803206  0.42912766  0.83384136     0.65600
H4097       H  0.74876089  0.43200604  0.79033533     0.18500
N4098       N  0.65556246  0.44951017  0.75761935     0.76100
H4099       H  0.63582573  0.44692625  0.80130628     0.10000
C4100       C  0.65258390  0.44862938  0.85454899     0.03700
C4101       C  0.63720306  0.44730962  0.87638530    -0.05000
C4102       C  0.62870213  0.43491957  0.88518934    -0.23400
C4103       C  0.63525309  0.42364533  0.87150732     0.13000
C4104       C  0.65165244  0.42490959  0.84987672    -0.12500
N4105       N  0.66030312  0.46151277  0.84630010     0.64600
H4106       H  0.63210472  0.45606539  0.88668655     0.12500
N4107       N  0.62675696  0.41085792  0.87988359     0.61300
H4108       H  0.65720975  0.41617127  0.83968777     0.08600
O4109       O  0.65120155  0.46174895  0.75556721    -0.40200
O4110       O  0.63677682  0.44172620  0.74716889    -0.39400
O4111       O  0.73141865  0.41682801  0.83565322    -0.39400
O4112       O  0.74717881  0.43659294  0.84467053    -0.37100
O4113       O  0.64475717  0.40503387  0.89444701    -0.38000
O4114       O  0.59923122  0.40626288  0.87544104    -0.34100
O4115       O  0.63864649  0.46833418  0.83655922    -0.35500
O4116       O  0.68515952  0.46713162  0.85406606    -0.39800
C4117       C  0.66733591  0.36089715  0.74016043    -0.13500
C4118       C  0.67627955  0.36300774  0.71663439     0.16900
C4119       C  0.67699279  0.35219297  0.70098374     0.03100
C4120       C  0.66738806  0.33973223  0.70887172    -0.12000
C4121       C  0.65651269  0.33788199  0.73202936    -0.03100
C4122       C  0.65705143  0.34856612  0.74787616     0.02400
C4123       C  0.68674514  0.37639769  0.70960342     0.09200
N4124       N  0.68559756  0.35381287  0.67677022     0.65600
H4125       H  0.66653410  0.33164200  0.69639855     0.18500
N4126       N  0.64739609  0.34704653  0.77191538     0.76100
H4127       H  0.66832236  0.36892397  0.75274255     0.10000
C4128       C  0.66727087  0.38757865  0.71401638     0.03700
C4129       C  0.67998780  0.40018957  0.71103714    -0.05000
C4130       C  0.71211048  0.40198849  0.70418650    -0.23400
C4131       C  0.73111344  0.39083998  0.69864481     0.13000
C4132       C  0.71826471  0.37820496  0.70133082    -0.12500
N4133       N  0.63490573  0.38632705  0.72237496     0.64600
H4134       H  0.66500898  0.40864664  0.71530486     0.12500
N4135       N  0.76351196  0.39213845  0.69043289     0.61300
H4136       H  0.73365629  0.36973655  0.69808695     0.08600
O4137       O  0.62004283  0.35117607  0.77833220    -0.40200
O4138       O  0.66853686  0.34470739  0.78731034    -0.39400
O4139       O  0.71260447  0.34964349  0.66968610    -0.39400
O4140       O  0.66373010  0.35609123  0.66189844    -0.37100
O4141       O  0.78642241  0.39047972  0.70471118    -0.38000
O4142       O  0.76910296  0.39156498  0.66858671    -0.34100
O4143       O  0.62886956  0.38858217  0.74381154    -0.35500
O4144       O  0.61211200  0.38652803  0.70771722    -0.39800
C4145       C  0.58185849  0.81221159  0.11983091    -0.13500
C4146       C  0.54910874  0.81130138  0.11409330     0.16900
C4147       C  0.52626230  0.81086600  0.13257677     0.03100
C4148       C  0.53645697  0.81117677  0.15613564    -0.12000
C4149       C  0.56931032  0.81155628  0.16195296    -0.03100
C4150       C  0.59215410  0.81221900  0.14338763     0.02400
C4151       C  0.53972165  0.80924243  0.08900178     0.09200
N4152       N  0.98929625  0.81137406  0.12844722     0.65600
H4153       H  0.51845239  0.81059209  0.17000198     0.18500
N4154       N  0.62593665  0.81273729  0.14802340     0.76100
H4155       H  0.59977859  0.81233575  0.10586604     0.10000
C4156       C  0.54680939  0.81848422  0.07113933     0.03700
C4157       C  0.53913105  0.81571469  0.04755370    -0.05000
C4158       C  0.52451778  0.80379022  0.04116069    -0.23400
C4159       C  0.01445827  0.79556731  0.05924948     0.13000
C4160       C  0.52578211  0.79722906  0.08257546    -0.12500
N4161       N  0.56102187  0.83087403  0.07669533     0.64600
H4162       H  0.54397634  0.82310946  0.03423114     0.12500
N4163       N  0.00193883  0.78285187  0.05382146     0.61300
H4164       H  0.52143565  0.78979039  0.09591690     0.08600
O4165       O  0.64021083  0.82366547  0.14705449    -0.40200
O4166       O  0.64230108  0.80225867  0.14725930    -0.39400
O4167       O  0.97515852  0.80046162  0.13052270    -0.39400
O4168       O  0.97280146  0.82182036  0.12803364    -0.37100
O4169       O  0.02125321  0.77347305  0.04999932    -0.38000
O4170       O  0.97273713  0.78037623  0.05810660    -0.34100
O4171       O  0.59053484  0.83265929  0.07242497    -0.35500
O4172       O  0.54300738  0.84070948  0.08018578    -0.39800
C4173       C  0.52405561  0.75319160  0.21229171    -0.13500
C4174       C  0.49125447  0.75586493  0.21648203     0.16900
C4175       C  0.98468946  0.76817419  0.22322334     0.03100
C4176       C  0.50615258  0.77732025  0.23146389    -0.12000
C4177       C  0.53901323  0.77493998  0.22679195    -0.03100
C4178       C  0.54792738  0.76260464  0.21722904     0.02400
C4179       C  0.97104943  0.74494075  0.21171834     0.09200
N4180       N  0.95127092  0.77158430  0.22422776     0.65600
H4181       H  0.49820872  0.78669003  0.23856809     0.18500
N4182       N  0.58086859  0.75935577  0.21274123     0.76100
H4183       H  0.53125480  0.74365904  0.20547012     0.10000
C4184       C  0.97054363  0.73769441  0.19050946     0.03700
C4185       C  0.94821653  0.72750873  0.18761702    -0.05000
C4186       C  0.92600296  0.72435215  0.20544830    -0.23400
C4187       C  0.92637485  0.73165161  0.22658445     0.13000
C4188       C  0.94878562  0.74178628  0.22950873    -0.12500
N4189       N  0.48068789  0.74349034  0.17024879     0.64600
H4190       H  0.94858223  0.72186783  0.17137491     0.12500
N4191       N  0.90627556  0.72814809  0.24605769     0.61300
H4192       H  0.94956659  0.74692863  0.24624971     0.08600
O4193       O  0.59144278  0.75981895  0.19189078    -0.40200
O4194       O  0.59653263  0.75305810  0.22810600    -0.39400
O4195       O  0.93775149  0.77285405  0.24404758    -0.39400
O4196       O  0.93804434  0.77649451  0.20624980    -0.37100
O4197       O  0.91690137  0.72027580  0.26140628    -0.38000
O4198       O  0.88189949  0.73512274  0.25076869    -0.34100
O4199       O  0.50396176  0.73643771  0.16338219    -0.35500
O4200       O  0.46912175  0.75201986  0.15647103    -0.39800
C4201       C  0.76922033  0.94049794  0.17002291    -0.13500
C4202       C  0.78513147  0.92884567  0.16357056     0.16900
C4203       C  0.79489225  0.92009143  0.18163551     0.03100
C4204       C  0.78852255  0.92311580  0.20534946    -0.12000
C4205       C  0.77208264  0.93468137  0.21173103    -0.03100
C4206       C  0.76237628  0.94342265  0.19363900     0.02400
C4207       C  0.79469269  0.92694730  0.13835653     0.09200
N4208       N  0.81045866  0.90789462  0.17623236     0.65600
H4209       H  0.79568250  0.91612024  0.21882282     0.18500
N4210       N  0.74625652  0.95551729  0.19887768     0.76100
H4211       H  0.76280820  0.94765378  0.15663484     0.10000
C4212       C  0.77260486  0.92832679  0.11951133     0.03700
C4213       C  0.78374380  0.92846732  0.09607121    -0.05000
C4214       C  0.81673040  0.92738816  0.09079318    -0.23400
C4215       C  0.83854637  0.92543725  0.10965628     0.13000
C4216       C  0.82741547  0.92531485  0.13296713    -0.12500
N4217       N  0.73884222  0.92979801  0.12382337     0.64600
H4218       H  0.76649580  0.92990849  0.08196277     0.12500
N4219       N  0.87228352  0.92371080  0.10561125     0.61300
H4220       H  0.84491654  0.92454355  0.14706086     0.08600
O4221       O  0.71615557  0.95633131  0.19613183    -0.40200
O4222       O  0.76253039  0.96590289  0.20110778    -0.39400
O4223       O  0.84009621  0.90656196  0.18057065    -0.39400
O4224       O  0.79348497  0.89776444  0.17319902    -0.37100
O4225       O  0.89081723  0.93345125  0.10774399    -0.38000
O4226       O  0.88403901  0.91224712  0.10596135    -0.34100
O4227       O  0.72582776  0.94092970  0.12104366    -0.35500
O4228       O  0.72130994  0.91968726  0.12440405    -0.39800
C4229       C  0.81277188  0.99329895  0.29152745    -0.13500
C4230       C  0.84490340  0.99095416  0.28471750     0.16900
C4231       C  0.85462346  0.97792433  0.27975278     0.03100
C4232       C  0.83220267  0.96774384  0.28088672    -0.12000
C4233       C  0.79977906  0.97015633  0.28660550    -0.03100
C4234       C  0.79013995  0.98308426  0.29225141     0.02400
C4235       C  0.86794621  0.00211690  0.28315412     0.09200
N4236       N  0.88685112  0.97486656  0.27262762     0.65600
H4237       H  0.84015346  0.95787494  0.27640930     0.18500
N4238       N  0.75794471  0.98593870  0.29961794     0.76100
H4239       H  0.80519640  0.00312091  0.29654176     0.10000
C4240       C  0.86060629  0.01356827  0.27015580     0.03700
C4241       C  0.88267312  0.02388619  0.26919771    -0.05000
C4242       C  0.91248696  0.02320149  0.28085773    -0.23400
C4243       C  0.91993193  0.01171537  0.29380919     0.13000
C4244       C  0.89753094  0.00143122  0.29507223    -0.12500
N4245       N  0.83105357  0.01485972  0.25747130     0.64600
H4246       H  0.87624662  0.03254678  0.25903077     0.12500
N4247       N  0.94944892  0.01043224  0.30645966     0.61300
H4248       H  0.90318437  0.99290504  0.30580368     0.08600
O4249       O  0.73874929  0.99133705  0.28534610    -0.40200
O4250       O  0.75125100  0.98590975  0.32132289    -0.39400
O4251       O  0.90543708  0.96919189  0.28700273    -0.39400
O4252       O  0.89371509  0.97469520  0.25095748    -0.37100
O4253       O  0.97288844  0.00459547  0.29681449    -0.38000
O4254       O  0.94902919  0.01159801  0.32857496    -0.34100
O4255       O  0.80910652  0.02220100  0.26560722    -0.35500
O4256       O  0.83025982  0.01160479  0.23603015    -0.39800
C4257       C  0.67160789  0.89101538  0.23557224    -0.13500
C4258       C  0.67134412  0.88071932  0.25203546     0.16900
C4259       C  0.68155398  0.88314486  0.27529712     0.03100
C4260       C  0.69246021  0.89566445  0.28150799    -0.12000
C4261       C  0.69297259  0.90593147  0.26498733    -0.03100
C4262       C  0.68226759  0.90356843  0.24183423     0.02400
C4263       C  0.66067781  0.86751986  0.24446484     0.09200
N4264       N  0.68064957  0.87305954  0.29284371     0.65600
H4265       H  0.70101193  0.89734254  0.29930271     0.18500
N4266       N  0.68477133  0.91342724  0.22397955     0.76100
H4267       H  0.66445444  0.88918187  0.21750324     0.10000
C4268       C  0.62966888  0.86569565  0.23515827     0.03700
C4269       C  0.61975056  0.85315965  0.22869598    -0.05000
C4270       C  0.63984107  0.84212614  0.23167888    -0.23400
C4271       C  0.67174389  0.84404295  0.23944574     0.13000
C4272       C  0.68183559  0.85671838  0.24586531    -0.12500
N4273       N  0.60715480  0.87632863  0.23359190     0.64600
H4274       H  0.59523998  0.85199245  0.22237988     0.12500
N4275       N  0.69377139  0.83328882  0.24157201     0.61300
H4276       H  0.70624952  0.85812450  0.25219411     0.08600
O4277       O  0.65975427  0.91948453  0.21746608    -0.40200
O4278       O  0.70967348  0.91380012  0.21119370    -0.39400
O4279       O  0.70648033  0.86743693  0.29891350    -0.39400
O4280       O  0.65596493  0.87193878  0.30570347    -0.37100
O4281       O  0.71272680  0.83077244  0.22473179    -0.38000
O4282       O  0.69930412  0.82842923  0.26162791    -0.34100
O4283       O  0.60063800  0.88115547  0.21366840    -0.35500
O4284       O  0.58862627  0.87864102  0.25077252    -0.39800
C4285       C  0.78523125  0.80260000  0.58110449    -0.13500
C4286       C  0.78886529  0.81537905  0.59000403     0.16900
C4287       C  0.78983971  0.82600200  0.57386536     0.03100
C4288       C  0.78540799  0.82371071  0.54966799    -0.12000
C4289       C  0.77961369  0.81100063  0.54110316    -0.03100
C4290       C  0.78029568  0.80033446  0.55707035     0.02400
C4291       C  0.79354579  0.81714001  0.61591435     0.09200
N4292       N  0.79365307  0.83923731  0.58179637     0.65600
H4293       H  0.78475245  0.83203652  0.53767854     0.18500
N4294       N  0.77641825  0.78709169  0.54913540     0.76100
H4295       H  0.78637568  0.79422305  0.59293931     0.10000
C4296       C  0.77222744  0.81150275  0.63263847     0.03700
C4297       C  0.77982160  0.81174936  0.65671826    -0.05000
C4298       C  0.80876270  0.81720856  0.66462260    -0.23400
C4299       C  0.82944086  0.82328673  0.64812315     0.13000
C4300       C  0.82162763  0.82326530  0.62408934    -0.12500
N4301       N  0.74340838  0.80499734  0.62543803     0.64600
H4302       H  0.76384399  0.80692829  0.66917530     0.12500
N4303       N  0.85873048  0.82936524  0.65545562     0.61300
H4304       H  0.83858212  0.82745966  0.61161922     0.08600
O4305       O  0.74989757  0.78134200  0.55247342    -0.40200
O4306       O  0.80105414  0.78036406  0.54398863    -0.39400
O4307       O  0.82011012  0.84500615  0.57828376    -0.39400
O4308       O  0.76890994  0.84599629  0.58649632    -0.37100
O4309       O  0.88482343  0.82300862  0.65402362    -0.38000
O4310       O  0.85956103  0.84169809  0.65790929    -0.34100
O4311       O  0.74236167  0.79258965  0.62592444    -0.35500
O4312       O  0.71739920  0.81143411  0.62459558    -0.39800
C4313       C  0.86928363  0.77188025  0.45890056    -0.13500
C4314       C  0.86135815  0.75860743  0.46161669     0.16900
C4315       C  0.82894800  0.75522586  0.46616213     0.03100
C4316       C  0.80515936  0.76505333  0.46736697    -0.12000
C4317       C  0.81299754  0.77839958  0.46482968    -0.03100
C4318       C  0.84581576  0.78176553  0.46091564     0.02400
C4319       C  0.88767899  0.74862250  0.46178714     0.09200
N4320       N  0.81980156  0.74185670  0.46986701     0.65600
H4321       H  0.78039588  0.76218758  0.47074387     0.18500
N4322       N  0.85630919  0.79514712  0.46065964     0.76100
H4323       H  0.89429255  0.77465294  0.45627132     0.10000
C4324       C  0.90656148  0.74592379  0.44159682     0.03700
C4325       C  0.93100353  0.73632781  0.44252939    -0.05000
C4326       C  0.93710728  0.72932816  0.46336151    -0.23400
C4327       C  0.91954545  0.73265952  0.48390605     0.13000
C4328       C  0.89509989  0.74219088  0.48293116    -0.12500
N4329       N  0.89991922  0.75225746  0.41966727     0.64600
H4330       H  0.94383061  0.73374784  0.42648949     0.12500
N4331       N  0.92662649  0.72659475  0.50602173     0.61300
H4332       H  0.88175871  0.74458466  0.49884243     0.08600
O4333       O  0.86391755  0.80044976  0.44133132    -0.40200
O4334       O  0.86515016  0.80042924  0.47969262    -0.39400
O4335       O  0.81566102  0.73777163  0.49065531    -0.39400
O4336       O  0.80816993  0.73539796  0.45294426    -0.37100
O4337       O  0.94629252  0.73210733  0.51973482    -0.38000
O4338       O  0.90779713  0.71797363  0.51411144    -0.34100
O4339       O  0.91801230  0.76142235  0.41267881    -0.35500
O4340       O  0.88106720  0.74684244  0.40524207    -0.39800
C4341       C  0.66620257  0.79424484  0.38236830    -0.13500
C4342       C  0.67369681  0.80379427  0.36543821     0.16900
C4343       C  0.69687418  0.81340745  0.37099164     0.03100
C4344       C  0.71241732  0.81319416  0.39296980    -0.12000
C4345       C  0.70482306  0.80372741  0.41019074    -0.03100
C4346       C  0.68098589  0.79421595  0.40464077     0.02400
C4347       C  0.65657240  0.80373613  0.34233995     0.09200
N4348       N  0.70478731  0.82351839  0.35451564     0.65600
H4349       H  0.73013435  0.82073637  0.39673813     0.18500
N4350       N  0.67097774  0.78455901  0.42140896     0.76100
H4351       H  0.64811422  0.78686985  0.37842396     0.10000
C4352       C  0.66351173  0.79421063  0.32502037     0.03700
C4353       C  0.64727424  0.79444077  0.30340110    -0.05000
C4354       C  0.62365129  0.80398217  0.29833593    -0.23400
C4355       C  0.61567480  0.81321108  0.31618800     0.13000
C4356       C  0.63231793  0.81304800  0.33780012    -0.12500
N4357       N  0.68789170  0.78449609  0.32875354     0.64600
H4358       H  0.65386824  0.78717019  0.29019601     0.12500
N4359       N  0.59141209  0.82300211  0.31260110     0.61300
H4360       H  0.62626649  0.82029602  0.35118868     0.08600
O4361       O  0.68176423  0.77297484  0.41974247    -0.40200
O4362       O  0.64597537  0.78666303  0.43356052    -0.39400
O4363       O  0.69194053  0.83472505  0.35665865    -0.39400
O4364       O  0.72928719  0.82218324  0.34151948    -0.37100
O4365       O  0.56324911  0.82093750  0.32014362    -0.38000
O4366       O  0.59971511  0.83459164  0.30749458    -0.34100
O4367       O  0.67970392  0.77282822  0.33335352    -0.35500
O4368       O  0.71624138  0.78675373  0.32180907    -0.39800
C4369       C  0.50959256  0.93646628  0.67010494    -0.13500
C4370       C  0.53746002  0.92934278  0.66436789     0.16900
C4371       C  0.55687288  0.92442224  0.68284208     0.03100
C4372       C  0.54866459  0.92705846  0.70632138    -0.12000
C4373       C  0.52118309  0.93448295  0.71208291    -0.03100
C4374       C  0.00567707  0.94007684  0.69279673     0.02400
C4375       C  0.54823003  0.92904849  0.63934576     0.09200
N4376       N  0.58501329  0.91671166  0.67812557     0.65600
H4377       H  0.56414021  0.92326401  0.72015404     0.18500
N4378       N  0.98002378  0.94917298  0.69715164     0.76100
H4379       H  0.00164936  0.94278542  0.65553695     0.10000
C4380       C  0.52768838  0.92528703  0.62069867     0.03700
C4381       C  0.53750789  0.92709578  0.59725529    -0.05000
C4382       C  0.56761397  0.93260150  0.59176871    -0.23400
C4383       C  0.58837465  0.93607417  0.61054652     0.13000
C4384       C  0.57839121  0.93437112  0.63386389    -0.12500
N4385       N  0.49681417  0.91961175  0.62518093     0.64600
H4386       H  0.52124828  0.92421337  0.58325295     0.12500
N4387       N  0.61939448  0.94169813  0.60647503     0.61300
H4388       H  0.59400767  0.93780383  0.64785362     0.08600
O4389       O  0.95128733  0.94520520  0.69605052    -0.40200
O4390       O  0.98561087  0.96135904  0.69632392    -0.39400
O4391       O  0.61242700  0.92170455  0.68144182    -0.39400
O4392       O  0.58248715  0.90436056  0.67704198    -0.37100
O4393       O  0.62252186  0.95403610  0.60720120    -0.38000
O4394       O  0.64410399  0.93448693  0.60805498    -0.34100
O4395       O  0.47179414  0.92640989  0.62161713    -0.35500
O4396       O  0.49441003  0.90725938  0.62639800    -0.39800
C4397       C  0.53467245  0.99568975  0.52954124    -0.13500
C4398       C  0.99874198  0.99292064  0.53554412     0.16900
C4399       C  0.98874943  0.97980393  0.53851653     0.03100
C4400       C  0.51238276  0.97000786  0.53378641    -0.12000
C4401       C  0.54496782  0.97204241  0.52808800    -0.03100
C4402       C  0.55629536  0.98509263  0.52639072     0.02400
C4403       C  0.97499415  0.00394100  0.53676697     0.09200
N4404       N  0.95636596  0.97672475  0.54504725     0.65600
H4405       H  0.50321291  0.96008464  0.53585552     0.18500
N4406       N  0.58901276  0.98778472  0.52030876     0.76100
H4407       H  0.54334781  0.00565195  0.52712609     0.10000
C4408       C  0.97864105  0.01445974  0.55267125     0.03700
C4409       C  0.95617945  0.02476153  0.55286937    -0.05000
C4410       C  0.92984003  0.02501922  0.53729351    -0.23400
C4411       C  0.92605280  0.01443058  0.52143495     0.13000
C4412       C  0.94850058  0.00404699  0.52136641    -0.12500
N4413       N  0.00492855  0.01483071  0.56885294     0.64600
H4414       H  0.95972305  0.03276331  0.56524680     0.12500
N4415       N  0.90097926  0.01444658  0.50425072     0.61300
H4416       H  0.94575796  0.99617878  0.50861411     0.08600
O4417       O  0.60830159  0.99134036  0.53621061    -0.40200
O4418       O  0.59629868  0.98975137  0.49899640    -0.39400
O4419       O  0.93743660  0.97219549  0.52971768    -0.39400
O4420       O  0.94936176  0.97548562  0.56658170    -0.37100
O4421       O  0.90646085  0.01920996  0.48409942    -0.38000
O4422       O  0.87689651  0.00707826  0.50718160    -0.34100
O4423       O  0.02843287  0.02232774  0.56466767    -0.35500
O4424       O  0.50753731  0.01164428  0.58801459    -0.39800
C4425       C  0.64094621  0.92988903  0.41979638    -0.13500
C4426       C  0.66216561  0.94020507  0.41455082     0.16900
C4427       C  0.66490505  0.95074227  0.43047658     0.03100
C4428       C  0.64713849  0.95069818  0.45143057    -0.12000
C4429       C  0.62620140  0.94032846  0.45703061    -0.03100
C4430       C  0.62292265  0.92985331  0.44080611     0.02400
C4431       C  0.67848277  0.94056453  0.39129919     0.09200
N4432       N  0.68611797  0.96146552  0.42582235     0.65600
H4433       H  0.65019453  0.95881058  0.46367589     0.18500
N4434       N  0.60261810  0.91886769  0.44576960     0.76100
H4435       H  0.63826013  0.92182378  0.40740649     0.10000
C4436       C  0.70640198  0.93312934  0.38634398     0.03700
C4437       C  0.71983055  0.93335131  0.36359018    -0.05000
C4438       C  0.70572515  0.94079323  0.34537635    -0.23400
C4439       C  0.67779247  0.94833548  0.35068515     0.13000
C4440       C  0.66475011  0.94818528  0.37344693    -0.12500
N4441       N  0.72133828  0.92531135  0.40418657     0.64600
H4442       H  0.74121651  0.92747343  0.36011077     0.12500
N4443       N  0.66191666  0.95609328  0.33320255     0.61300
H4444       H  0.64315568  0.95391374  0.37712362     0.08600
O4445       O  0.61482059  0.90853099  0.45431416    -0.40200
O4446       O  0.57498582  0.91837554  0.43660019    -0.39400
O4447       O  0.67457812  0.97224663  0.41867224    -0.39400
O4448       O  0.71423967  0.96119900  0.43420010    -0.37100
O4449       O  0.63822281  0.95130294  0.32231775    -0.38000
O4450       O  0.66629332  0.96837049  0.33284933    -0.34100
O4451       O  0.71684760  0.91304011  0.40440135    -0.35500
O4452       O  0.74413548  0.93010034  0.41604721    -0.39800
C4453       C  0.65622719  0.85096952  0.51688130    -0.13500
C4454       C  0.66185151  0.86213459  0.50282778     0.16900
C4455       C  0.67839026  0.86061132  0.48129202     0.03100
C4456       C  0.69038895  0.84829381  0.47485219    -0.12000
C4457       C  0.68665018  0.83724138  0.48949146    -0.03100
C4458       C  0.66837781  0.83855165  0.51038363     0.02400
C4459       C  0.65156385  0.87537393  0.51107580     0.09200
N4460       N  0.68372904  0.87152897  0.46588394     0.65600
H4461       H  0.70394276  0.84749504  0.45853275     0.18500
N4462       N  0.66389159  0.82769280  0.52600350     0.76100
H4463       H  0.64358119  0.85199651  0.53352665     0.10000
C4464       C  0.61911210  0.87816148  0.51626292     0.03700
C4465       C  0.60992326  0.89096281  0.52209681    -0.05000
C4466       C  0.63230825  0.90134610  0.52253583    -0.23400
C4467       C  0.66518372  0.89839573  0.51892798     0.13000
C4468       C  0.67448861  0.88546364  0.51335188    -0.12500
N4469       N  0.59475836  0.86833250  0.51416365     0.64600
H4470       H  0.58453730  0.89285613  0.52523455     0.12500
N4471       N  0.68922067  0.90839516  0.51989577     0.61300
H4472       H  0.69976958  0.88334049  0.51028496     0.08600
O4473       O  0.63741301  0.82163276  0.52583449    -0.40200
O4474       O  0.68256006  0.82630899  0.54334957    -0.39400
O4475       O  0.71118997  0.87681103  0.46519413    -0.39400
O4476       O  0.66409717  0.87370411  0.44938902    -0.37100
O4477       O  0.70485741  0.91000942  0.53870656    -0.38000
O4478       O  0.69978539  0.91328666  0.50096292    -0.34100
O4479       O  0.58261542  0.86345981  0.53260061    -0.35500
O4480       O  0.58015107  0.86706299  0.49482971    -0.39800
loop_ 
_geom_bond_atom_site_label_1 
_geom_bond_atom_site_label_2 
_geom_bond_distance 
_geom_bond_site_symmetry_2 
_ccdc_geom_bond_type 
O1            V9   1.916       .  S
O1           C11   1.268       .  A
O2            V9   1.911       .  S
O2           C12   1.269       .  A
O3            V9   1.879       .  S
O3           C13   1.260       .  A
O4            V9   1.864       .  S
O4           C14   1.258       .  A
O5           V10   1.927       .  S
O5           C14   1.271       .  A
O6           V10   1.932       .  S
O6           C13   1.272       .  A
O7           V10   1.896       .  S
O7           C12   1.263       .  A
O8           V10   1.893       .  S
O8           C11   1.263       .  A
V9           V10   2.082       .  T
C11        C2189   1.485       .  S
C12        C2142   1.490       .  S
C13        C2161   1.487       .  S
C14        C2226   1.485       .  S
O15          V23   1.925       .  S
O15          C25   1.272       .  A
O16          V23   1.924       .  S
O16          C26   1.271       .  A
O17          V23   1.885       .  S
O17          C27   1.259       .  A
O18          V23   1.869       .  S
O18          C28   1.257       .  A
O19          V24   1.926       .  S
O19          C28   1.270       .  A
O20          V24   1.917       .  S
O20          C27   1.272       .  A
O21          V24   1.893       .  S
O21          C26   1.261       .  A
O22          V24   1.906       .  S
O22          C25   1.264       .  A
V23          V24   2.084       .  T
C25        C2105   1.500       .  S
C26        C2049   1.488       .  S
C27        C2077   1.490       .  S
C28        C2217   1.475       .  S
O29          V37   1.913       .  S
O29          C39   1.269       .  A
O30          V37   1.914       .  S
O30          C40   1.270       .  A
O31          V37   1.886       .  S
O31          C41   1.262       .  A
O32          V37   1.882       .  S
O32          C42   1.260       .  A
O33          V38   1.912       .  S
O33          C42   1.267       .  A
O34          V38   1.914       .  S
O34          C41   1.268       .  A
O35          V38   1.895       .  S
O35          C40   1.262       .  A
O36          V38   1.900       .  S
O36          C39   1.264       .  A
V37          V38   2.082       .  T
C39        C2198   1.496       .  S
C40        C1965   1.490       .  S
C41        C1993   1.483       .  S
C42        C2021   1.470       .  S
O43          V51   1.925       .  S
O43          C53   1.270       .  A
O44          V51   1.919       .  S
O44          C54   1.271       .  A
O45          V51   1.876       .  S
O45          C55   1.261       .  A
O46          V51   1.869       .  S
O46          C56   1.259       .  A
O47          V52   1.922       .  S
O47          C56   1.269       .  A
O48          V52   1.928       .  S
O48          C55   1.271       .  A
O49          V52   1.906       .  S
O49          C54   1.265       .  A
O50          V52   1.902       .  S
O50          C53   1.267       .  A
V51          V52   2.077       .  T
C53        C2114   1.504       .  S
C54        C1909   1.498       .  S
C55        C1937   1.491       .  S
C56        C2030   1.476       .  S
O57          V65   1.916       .  S
O57          C67   1.271       .  A
O58          V65   1.923       .  S
O58          C68   1.269       .  A
O59          V65   1.896       .  S
O59          C69   1.263       .  A
O60          V65   1.896       .  S
O60          C70   1.262       .  A
O61          V66   1.904       .  S
O61          C70   1.268       .  A
O62          V66   1.908       .  S
O62          C69   1.267       .  A
O63          V66   1.884       .  S
O63          C68   1.263       .  A
O64          V66   1.898       .  S
O64          C67   1.263       .  A
V65          V66   2.081       .  T
C67        C1853   1.497       .  S
C68        C1797   1.490       .  S
C69        C1825   1.478       .  S
C70        C1890   1.484       .  S
O71          V79   1.922       .  S
O71          C81   1.271       .  A
O72          V79   1.923       .  S
O72          C82   1.270       .  A
O73          V79   1.890       .  S
O73          C83   1.262       .  A
O74          V79   1.883       .  S
O74          C84   1.259       .  A
O75          V80   1.912       .  S
O75          C84   1.269       .  A
O76          V80   1.924       .  S
O76          C83   1.270       .  A
O77          V80   1.887       .  S
O77          C82   1.262       .  A
O78          V80   1.895       .  S
O78          C81   1.262       .  A
V79          V80   2.082       .  T
C81        C1769   1.491       .  S
C82        C1713   1.489       .  S
C83        C1741   1.486       .  S
C84        C1881   1.478       .  S
O85          V93   1.913       .  S
O85          C95   1.267       .  A
O86          V93   1.909       .  S
O86          C96   1.269       .  A
O87          V93   1.879       .  S
O87          C97   1.261       .  A
O88          V93   1.873       .  S
O88          C98   1.258       .  A
O89          V94   1.918       .  S
O89          C98   1.269       .  A
O90          V94   1.921       .  S
O90          C97   1.270       .  A
O91          V94   1.886       .  S
O91          C96   1.259       .  A
O92          V94   1.888       .  S
O92          C95   1.261       .  A
V93          V94   2.085       .  T
C95        C1862   1.477       .  S
C96        C1629   1.482   1_556  S
C97        C1657   1.488       .  S
C98        C1694   1.478       .  S
O99         V107   1.924       .  S
O99         C109   1.270       .  A
O100        V107   1.924   1_554  S
O100        C110   1.270       .  A
O101        V107   1.883       .  S
O101        C111   1.262       .  A
O102        V107   1.863       .  S
O102        C112   1.258       .  A
O103        V108   1.920       .  S
O103        C112   1.269       .  A
O104        V108   1.924       .  S
O104        C111   1.270       .  A
O105        V108   1.887   1_554  S
O105        C110   1.263       .  A
O106        V108   1.888       .  S
O106        C109   1.262       .  A
V107        V108   2.081       .  T
C109       C1778   1.487       .  S
C110       C1573   1.495       .  S
C111       C1610   1.492       .  S
C112       C1685   1.480       .  S
O113        V121   1.922       .  S
O113        C123   1.270       .  A
O114        V121   1.922       .  S
O114        C124   1.270       .  A
O115        V121   1.886       .  S
O115        C125   1.260       .  A
O116        V121   1.892       .  S
O116        C126   1.264       .  A
O117        V122   1.920       .  S
O117        C126   1.268       .  A
O118        V122   1.913       .  S
O118        C125   1.266       .  A
O119        V122   1.890       .  S
O119        C124   1.264       .  A
O120        V122   1.884       .  S
O120        C123   1.263       .  A
V121        V122   2.083       .  T
C123       C1526   1.493       .  S
C124       C1461   1.495       .  S
C125       C1554   1.467       .  S
C126       C1489   1.491       .  S
O127        V135   1.920       .  S
O127        C137   1.272       .  A
O128        V135   1.928       .  S
O128        C138   1.270       .  A
O129        V135   1.875       .  S
O129        C139   1.260       .  A
O130        V135   1.884       .  S
O130        C140   1.261       .  A
O131        V136   1.924       .  S
O131        C140   1.271       .  A
O132        V136   1.925       .  S
O132        C139   1.270       .  A
O133        V136   1.877       .  S
O133        C138   1.262       .  A
O134        V136   1.897       .  S
O134        C137   1.262       .  A
V135        V136   2.083       .  T
C137       C1433   1.496       .  S
C138       C1405   1.493       .  S
C139       C1545   1.489       .  S
C140       C2170   1.490       .  S
O141        V149   1.924       .  S
O141        C151   1.272       .  A
O142        V149   1.928       .  S
O142        C152   1.271       .  A
O143        V149   1.881       .  S
O143        C153   1.261       .  A
O144        V149   1.887       .  S
O144        C154   1.261       .  A
O145        V150   1.930       .  S
O145        C154   1.272       .  A
O146        V150   1.928       .  S
O146        C153   1.271       .  A
O147        V150   1.877       .  S
O147        C152   1.261       .  A
O148        V150   1.892       .  S
O148        C151   1.261       .  A
V149        V150   2.081       .  T
C151       C1442   1.497       .  S
C152       C1321   1.491       .  S
C153       C1377   1.492       .  S
C154       C1349   1.489       .  S
O155        V163   1.917       .  S
O155        C165   1.269       .  A
O156        V163   1.922       .  S
O156        C166   1.270       .  A
O157        V163   1.888       .  S
O157        C167   1.261       .  A
O158        V163   1.899       .  S
O158        C168   1.263       .  A
O159        V164   1.908       .  S
O159        C168   1.267       .  A
O160        V164   1.909       .  S
O160        C167   1.267       .  A
O161        V164   1.885       .  S
O161        C166   1.260       .  A
O162        V164   1.889       .  S
O162        C165   1.263       .  A
V163        V164   2.086       .  T
C165       C1517   1.492       .  S
C166       C1293   1.479       .  S
C167       C1386   1.477       .  S
C168       C1750   1.479       .  S
O169        V177   1.914       .  S
O169        C179   1.270       .  A
O170        V177   1.920       .  S
O170        C180   1.270       .  A
O171        V177   1.885       .  S
O171        C181   1.259       .  A
O172        V177   1.885       .  S
O172        C182   1.262       .  A
O173        V178   1.920       .  S
O173        C182   1.268       .  A
O174        V178   1.908       .  S
O174        C181   1.269       .  A
O175        V178   1.885       .  S
O175        C180   1.260       .  A
O176        V178   1.893       .  S
O176        C179   1.262       .  A
V177        V178   2.084       .  T
C179       C1237   1.489   1_556  S
C180       C1218   1.484       .  S
C181       C1265   1.475       .  S
C182       C1666   1.482       .  S
O183        V191   1.911       .  S
O183        C193   1.269       .  A
O184        V191   1.918       .  S
O184        C194   1.268       .  A
O185        V191   1.871       .  S
O185        C195   1.260       .  A
O186        V191   1.882       .  S
O186        C196   1.260       .  A
O187        V192   1.919       .  S
O187        C196   1.269       .  A
O188        V192   1.919       .  S
O188        C195   1.268       .  A
O189        V192   1.884       .  S
O189        C194   1.262       .  A
O190        V192   1.899       .  S
O190        C193   1.263       .  A
V191        V192   2.085       .  T
C193       C1181   1.494   1_556  S
C194       C1125   1.480       .  S
C195       C1274   1.484       .  S
C196       C1162   1.477       .  S
O197        V205   1.911       .  S
O197        C207   1.269       .  A
O198        V205   1.919       .  S
O198        C208   1.271       .  A
O199        V205   1.884       .  S
O199        C209   1.259       .  A
O200        V205   1.885       .  S
O200        C210   1.260       .  A
O201        V206   1.905       .  S
O201        C210   1.268       .  A
O202        V206   1.911       .  S
O202        C209   1.268       .  A
O203        V206   1.892       .  S
O203        C208   1.261       .  A
O204        V206   1.890       .  S
O204        C207   1.261       .  A
V205        V206   2.086       .  T
C207       C1246   1.482       .  S
C208       C1050   1.491       .  S
C209       C1097   1.471       .  S
C210       C1069   1.477       .  S
O211        V219   1.908       .  S
O211        C221   1.269       .  A
O212        V219   1.911       .  S
O212        C222   1.268       .  A
O213        V219   1.879       .  S
O213        C223   1.261       .  A
O214        V219   1.885       .  S
O214        C224   1.260       .  A
O215        V220   1.918       .  S
O215        C224   1.269       .  A
O216        V220   1.912       .  S
O216        C223   1.268       .  A
O217        V220   1.890       .  S
O217        C222   1.262       .  A
O218        V220   1.903       .  S
O218        C221   1.264       .  A
V219        V220   2.081       .  T
C221       C1190   1.495       .  S
C222       C1013   1.476       .  S
C223       C1106   1.479       .  S
C224       C1946   1.476       .  S
O225       V2473   1.917       .  S
O225        C235   1.268       .  A
O226        V233   1.912       .  S
O226        C236   1.270       .  A
O227        V233   1.885       .  S
O227        C237   1.262       .  A
O228       V2473   1.875       .  S
O228        C238   1.260       .  A
O229        V234   1.920       .  S
O229        C238   1.269       .  A
O230        V234   1.925       .  S
O230       C2477   1.270       .  A
O231        V234   1.890       .  S
O231       C2476   1.261       .  A
O232        V234   1.893       .  S
O232        C235   1.265       .  A
V233       O2465   1.920       .  S
V233       O2468   1.874   1_455  S
V233       V2474   2.082   1_455  T
V234       V2473   2.083       .  T
C235        C957   1.494       .  S
C236       O2471   1.261   1_455  A
C236       C2133   1.491       .  S
C237       O2470   1.272       .  A
C237       C1358   1.499       .  S
C238        C994   1.483       .  S
O239        V247   1.923       .  S
O239        C249   1.272       .  A
O240        V247   1.921       .  S
O240        C250   1.270       .  A
O241        V247   1.874       .  S
O241        C251   1.259       .  A
O242        V247   1.869       .  S
O242        C252   1.258       .  A
O243        V248   1.927       .  S
O243        C252   1.271       .  A
O244        V248   1.932       .  S
O244        C251   1.273       .  A
O245        V248   1.898       .  S
O245        C250   1.262       .  A
O246        V248   1.903       .  S
O246        C249   1.264       .  A
V247        V248   2.079       .  T
C249        C929   1.502       .  S
C250       C2058   1.485       .  S
C251        C901   1.492       .  S
C252        C985   1.486       .  S
O253        V261   1.914   1_556  S
O253        C263   1.270       .  A
O254        V261   1.919       .  S
O254        C264   1.271       .  A
O255        V261   1.884       .  S
O255        C265   1.259       .  A
O256        V261   1.875       .  S
O256        C266   1.260       .  A
O257        V262   1.921       .  S
O257        C266   1.270       .  A
O258        V262   1.919       .  S
O258        C265   1.270       .  A
O259        V262   1.893       .  S
O259        C264   1.262       .  A
O260        V262   1.894       .  S
O260        C263   1.262   1_554  A
V261        V262   2.079       .  T
C263        C966   1.493       .  S
C264       C1974   1.491       .  S
C265        C845   1.476       .  S
C266        C873   1.486       .  S
O267       V2515   1.922       .  S
O267        C277   1.269       .  A
O268        V275   1.919       .  S
O268       C2518   1.270   1_556  A
O269        V275   1.878       .  S
O269        C279   1.261       .  A
O270       V2515   1.873       .  S
O270        C280   1.259       .  A
O271        V276   1.919       .  S
O271        C280   1.268       .  A
O272        V276   1.919       .  S
O272       C2519   1.269       .  A
O273        V276   1.898   1_554  S
O273        C278   1.263       .  A
O274        V276   1.902       .  S
O274        C277   1.266       .  A
V275       O2507   1.923   1_455  S
V275       O2510   1.876   1_455  S
V275       V2516   2.083   1_455  T
V276       V2515   2.084       .  T
C277        C938   1.500       .  S
C278       O2508   1.270   1_554  A
C278       C4158   1.492       .  S
C279       O2512   1.269   1_455  A
C279       C1153   1.486       .  S
C280        C882   1.476       .  S
O281        V289   1.917       .  S
O281       C2531   1.271       .  A
O282        V289   1.923       .  S
O282        C292   1.271       .  A
O283        V289   1.870       .  S
O283       C2533   1.255       .  A
O284        V289   1.878       .  S
O284        C294   1.260       .  A
O285       V2530   1.929       .  S
O285        C294   1.272       .  A
O286        V290   1.920   1_455  S
O286        C293   1.270       .  A
O287        V290   1.879       .  S
O287       C2532   1.260       .  A
O288        V290   1.885   1_455  S
O288        C291   1.259   1_455  A
V289       V2530   2.085       .  T
V290       O2525   1.925       .  S
V290       V2529   2.084       .  T
C291       O2521   1.270       .  A
C291        C789   1.486   1_655  S
C292       O2527   1.257       .  A
C292       C1209   1.477       .  S
C293       O2523   1.258   1_455  A
C293        C817   1.476       .  S
C294       C1834   1.495       .  S
O295        V303   1.912       .  S
O295        C305   1.269       .  A
O296        V303   1.912       .  S
O296        C306   1.269       .  A
O297        V303   1.881       .  S
O297        C307   1.261       .  A
O298        V303   1.886       .  S
O298        C308   1.261       .  A
O299        V304   1.921       .  S
O299        C308   1.270       .  A
O300        V304   1.919       .  S
O300        C307   1.270       .  A
O301        V304   1.889       .  S
O301        C306   1.261       .  A
O302        V304   1.894       .  S
O302        C305   1.263       .  A
V303        V304   2.082       .  T
C305        C770   1.491       .  S
C306       C1134   1.486       .  S
C307        C826   1.488       .  S
C308        C910   1.486       .  S
O309        V317   1.913       .  S
O309        C319   1.269       .  A
O310        V317   1.925       .  S
O310        C320   1.270       .  A
O311        V317   1.892       .  S
O311        C321   1.261       .  A
O312        V317   1.895       .  S
O312        C322   1.263       .  A
O313        V318   1.915       .  S
O313        C322   1.267       .  A
O314        V318   1.911       .  S
O314        C321   1.266       .  A
O315        V318   1.883       .  S
O315        C320   1.262       .  A
O316        V318   1.894       .  S
O316        C319   1.262       .  A
V317        V318   2.085       .  T
C319        C798   1.487       .  S
C320       C1041   1.492       .  S
C321        C742   1.472       .  S
C322        C714   1.480       .  S
O323        V331   1.907       .  S
O323       C2573   1.269       .  A
O324        V331   1.915       .  S
O324        C334   1.268       .  A
O325        V331   1.878       .  S
O325       C2575   1.260       .  A
O326        V331   1.885       .  S
O326        C336   1.259       .  A
O327       V2572   1.924       .  S
O327        C336   1.271       .  A
O328        V332   1.923       .  S
O328        C335   1.271       .  A
O329       V2572   1.887       .  S
O329        C334   1.260       .  A
O330        V332   1.893       .  S
O330        C333   1.262       .  A
V331       V2572   2.083       .  T
V332       O2567   1.929   1_455  S
V332       O2569   1.884   1_455  S
V332       V2571   2.083   1_455  T
C333       O2563   1.269   1_455  A
C333        C761   1.488       .  S
C334       C1022   1.472       .  S
C335       O2565   1.260   1_455  A
C335        C733   1.484       .  S
C336       C2086   1.480       .  S
O337        V345   1.917       .  S
O337        C347   1.268       .  A
O338        V345   1.920       .  S
O338        C348   1.269       .  A
O339        V345   1.893       .  S
O339        C349   1.265       .  A
O340        V345   1.888       .  S
O340        C350   1.260       .  A
O341        V346   1.914       .  S
O341        C350   1.268       .  A
O342        V346   1.920       .  S
O342        C349   1.269       .  A
O343        V346   1.887       .  S
O343        C348   1.262       .  A
O344        V346   1.891       .  S
O344        C347   1.264       .  A
V345        V346   2.084       .  T
C347        C658   1.493       .  S
C348       C1806   1.489       .  S
C349        C705   1.496       .  S
C350        C686   1.473       .  S
O351       V2599   1.936       .  S
O351        C361   1.274       .  A
O352        V359   1.932       .  S
O352       C2602   1.273       .  A
O353        V359   1.894       .  S
O353        C363   1.262       .  A
O354       V2599   1.897       .  S
O354        C364   1.262       .  A
O355        V360   1.912       .  S
O355        C364   1.269       .  A
O356        V360   1.913       .  S
O356       C2603   1.268       .  A
O357        V360   1.876       .  S
O357        C362   1.260       .  A
O358        V360   1.884       .  S
O358        C361   1.261       .  A
V359       O2591   1.934       .  S
V359       O2594   1.894       .  S
V359       V2600   2.079   1_455  T
V360       V2599   2.079       .  T
C361        C630   1.498       .  S
C362       O2592   1.273       .  A
C362       C3962   1.491       .  S
C363       O2596   1.269       .  A
C363       C1498   1.482       .  S
C364        C677   1.486       .  S
O365       V2613   1.918       .  S
O365        C375   1.270       .  A
O366        V373   1.909       .  S
O366        C376   1.269       .  A
O367        V373   1.870       .  S
O367        C377   1.256       .  A
O368       V2613   1.867       .  S
O368        C378   1.258       .  A
O369        V374   1.926       .  S
O369        C378   1.271       .  A
O370        V374   1.918       .  S
O370       C2617   1.270       .  A
O371        V374   1.886       .  S
O371       C2616   1.260       .  A
O372        V374   1.894       .  S
O372        C375   1.261       .  A
V373       O2605   1.914       .  S
V373       O2608   1.864       .  S
V373       V2614   2.084   1_455  T
V374       V2613   2.084       .  T
C375        C649   1.487       .  S
C376       O2611   1.260   1_455  A
C376       C1638   1.480       .  S
C377       O2610   1.271       .  A
C377       C1078   1.473       .  S
C378        C593   1.483       .  S
O379        V387   1.920       .  S
O379        C389   1.270       .  A
O380        V387   1.930       .  S
O380        C390   1.270       .  A
O381        V387   1.883       .  S
O381        C391   1.262       .  A
O382        V387   1.881       .  S
O382        C392   1.260       .  A
O383        V388   1.916       .  S
O383        C392   1.267       .  A
O384        V388   1.913       .  S
O384        C391   1.267       .  A
O385        V388   1.882       .  S
O385        C390   1.263       .  A
O386        V388   1.897       .  S
O386        C389   1.262       .  A
V387        V388   2.085       .  T
C389        C621   1.489       .  S
C390       C1582   1.496       .  S
C391        C565   1.486       .  S
C392        C602   1.471       .  S
O393        V401   1.913       .  S
O393        C403   1.269       .  A
O394        V401   1.912       .  S
O394        C404   1.269   1_554  A
O395        V401   1.864       .  S
O395        C405   1.257       .  A
O396        V401   1.872       .  S
O396        C406   1.258       .  A
O397        V402   1.932       .  S
O397        C406   1.273       .  A
O398        V402   1.929       .  S
O398        C405   1.271       .  A
O399        V402   1.892   1_556  S
O399        C404   1.261       .  A
O400        V402   1.902       .  S
O400        C403   1.264       .  A
V401        V402   2.083       .  T
C403        C509   1.493       .  S
C404       C1330   1.485       .  S
C405        C537   1.481       .  S
C406        C854   1.494       .  S
O407        V415   1.933       .  S
O407       C2657   1.273       .  A
O408        V415   1.925   1_556  S
O408        C418   1.273       .  A
O409       V2655   1.884       .  S
O409        C419   1.259   1_655  A
O410        V415   1.880       .  S
O410        C420   1.260       .  A
O411       V2656   1.919       .  S
O411        C420   1.269       .  A
O412        V416   1.908       .  S
O412        C419   1.269       .  A
O413        V416   1.884   1_656  S
O413       C2658   1.259       .  A
O414        V416   1.895       .  S
O414        C417   1.265       .  A
V415       O2649   1.878       .  S
V415       V2656   2.079       .  T
V416       O2651   1.918   1_455  S
V416       V2655   2.081   1_455  T
C417       O2647   1.270   1_455  A
C417        C481   1.500       .  S
C418       O2653   1.258       .  A
C418       C1302   1.491       .  S
C419        C546   1.479       .  S
C420       C1601   1.478       .  S
O421        V429   1.921       .  S
O421        C431   1.271       .  A
O422        V429   1.923       .  S
O422        C432   1.272       .  A
O423        V429   1.877       .  S
O423       C2673   1.257       .  A
O424        V429   1.879       .  S
O424        C434   1.261       .  A
O425        V430   1.924       .  S
O425        C434   1.270       .  A
O426       V2670   1.916   1_455  S
O426        C433   1.269       .  A
O427        V430   1.882       .  S
O427        C432   1.259       .  A
O428       V2670   1.893       .  S
O428       C2671   1.262       .  A
V429        V430   2.085       .  T
V430       O2666   1.916       .  S
V430       O2668   1.881       .  S
C431       O2668   1.259       .  A
C431       C2758   1.489       .  S
C432       C1414   1.486       .  S
C433       O2663   1.259   1_455  A
C433        C453   1.478       .  S
C434       C2002   1.489       .  S
O435        V443   1.916       .  S
O435        C445   1.268       .  A
O436        V443   1.913       .  S
O436        C446   1.267       .  A
O437        V443   1.893       .  S
O437        C447   1.265       .  A
O438        V443   1.887       .  S
O438        C448   1.260       .  A
O439        V444   1.919       .  S
O439        C448   1.271       .  A
O440        V444   1.927       .  S
O440        C447   1.270       .  A
O441        V444   1.886       .  S
O441        C446   1.261       .  A
O442        V444   1.882       .  S
O442        C445   1.262       .  A
V443        V444   2.082       .  T
C445        C462   1.488       .  S
C446        C574   1.473       .  S
C447        C490   1.501       .  S
C448       C1470   1.491       .  S
C449        C450   1.398       .  A
C449       C2694   1.397       .  A
C449       H2699   1.086       .  S
C450        C455   1.479       .  S
C450        C451   1.411       .  A
C451        C452   1.403       .  A
C451        N456   1.428       .  S
C452        C453   1.402       .  A
C452        H457   1.085       .  S
C453       C2694   1.415       .  A
C454       C2689   1.395       .  A
C454       C2693   1.416       .  A
C454        N458   1.430       .  S
C455        C460   1.405       .  A
C455        C464   1.403       .  A
N456        O471   1.262       .  A
N456        O472   1.261       .  A
N458        O469   1.262       .  A
N458        O470   1.262       .  A
H459       C2689   1.086       .  S
C460        C461   1.396       .  A
C460        N465   1.429       .  S
C461        C462   1.409       .  A
C461        H466   1.085       .  S
C462        C463   1.414       .  A
C463        C464   1.403       .  A
C463        N467   1.428       .  S
C464        H468   1.085       .  S
N465        O475   1.262       .  A
N465        O476   1.262       .  A
N467        O473   1.262       .  A
N467        O474   1.262       .  A
C477        C478   1.404       .  A
C477        C482   1.407       .  A
C477       H2727   1.085       .  S
C478        C483   1.495       .  S
C478        C479   1.409       .  A
C479        C480   1.403       .  A
C479        N484   1.428       .  S
C480        C481   1.409       .  A
C480        H485   1.085       .  S
C481        C482   1.417       .  A
C482       N2726   1.427   1_455  S
C483        C488   1.408       .  A
C483        C492   1.407       .  A
N484        O499   1.262       .  A
N484        O500   1.262       .  A
N486       C2722   1.427       .  S
N486        O497   1.262       .  A
N486        O498   1.262       .  A
H487       C2717   1.085       .  S
C488        C489   1.398       .  A
C488        N493   1.428       .  S
C489        C490   1.409       .  A
C489        H494   1.085       .  S
C490        C491   1.419       .  A
C491        C492   1.412       .  A
C491        N495   1.428       .  S
C492        H496   1.085       .  S
N493        O504   1.262       .  A
N493       O2743   1.262   1_455  A
N495        O501   1.262       .  A
N495        O502   1.262       .  A
O503       N2733   1.262       .  A
C505        C506   1.400       .  A
C505        C510   1.403       .  A
C505       H2755   1.086       .  S
C506        C511   1.490       .  S
C506        C507   1.413       .  A
C507        C508   1.405       .  A
C507        N512   1.429       .  S
C508        C509   1.405       .  A
C508        H513   1.086       .  S
C509        C510   1.418       .  A
C510        N514   1.428       .  S
C511        C516   1.413       .  A
C511        C520   1.401       .  A
N512        O527   1.262       .  A
N512        O528   1.262       .  A
N514        O526   1.262       .  A
N514       O2765   1.262       .  A
H515       C2745   1.086       .  S
C516       C2757   1.405   1_455  A
C516       N2761   1.428       .  S
C517       C2756   1.407       .  A
C517       C2758   1.404       .  A
C517        H522   1.085       .  S
C518       C2671   1.489       .  S
C518        C519   1.415   1_655  A
C518       C2757   1.405       .  A
C519        C520   1.401       .  A
C519        N523   1.429       .  S
C520        H524   1.085       .  S
N521       C2756   1.428       .  S
N521        O531   1.262       .  A
N521       O2772   1.262       .  A
N523        O529   1.262       .  A
N523        O530   1.262       .  A
O525       N2754   1.262       .  A
O532       N2761   1.262       .  A
C533        C534   1.404       .  A
C533        C538   1.406       .  A
C533        H543   1.085   1_554  S
C534        C539   1.470       .  S
C534        C535   1.402       .  A
C535        C536   1.390       .  A
C535       N2780   1.430       .  S
C536        C537   1.408       .  A
C536        H541   1.086       .  S
C537        C538   1.412       .  A
C538        N542   1.427   1_554  S
C539        C544   1.407   1_554  A
C539        C548   1.395       .  A
N540       C2775   1.430       .  S
N540        O555   1.262       .  A
N540        O556   1.262       .  A
N542        O553   1.262       .  A
N542        O554   1.262       .  A
C544        C545   1.400   1_556  A
C544        N549   1.428       .  S
C545        C546   1.405       .  A
C545        H550   1.085   1_554  S
C546        C547   1.417       .  A
C547        C548   1.394       .  A
C547        N551   1.429   1_455  S
C548        H552   1.086       .  S
N549        O559   1.262       .  A
N549        O560   1.262       .  A
N551        O557   1.261       .  A
N551       O2798   1.262       .  A
O558       N2791   1.262       .  A
C561        C562   1.404       .  A
C561        C566   1.403       .  A
C561        H571   1.085       .  S
C562        C567   1.483       .  S
C562        C563   1.407       .  A
C563        C564   1.394       .  A
C563        N568   1.429       .  S
C564        C565   1.407       .  A
C564        H569   1.085       .  S
C565        C566   1.413       .  A
C566        N570   1.428       .  S
C567        C572   1.411       .  A
C567        C576   1.402       .  A
N568        O583   1.262       .  A
N568        O584   1.262       .  A
N570        O581   1.262       .  A
N570        O582   1.262       .  A
C572        C573   1.398       .  A
C572        N577   1.428       .  S
C573        C574   1.401       .  A
C573        H578   1.086       .  S
C574        C575   1.411       .  A
C575        C576   1.400       .  A
C575        N579   1.427       .  S
C576        H580   1.085       .  S
N577        O587   1.262       .  A
N577        O588   1.262       .  A
N579        O585   1.262       .  A
N579        O586   1.262       .  A
C589        C590   1.404       .  A
C589        C594   1.405       .  A
C589        H599   1.086       .  S
C590        C595   1.474       .  S
C590        C591   1.403       .  A
C591        C592   1.391       .  A
C591        N596   1.429       .  S
C592        C593   1.409       .  A
C592        H597   1.086       .  S
C593        C594   1.412       .  A
C594        N598   1.428       .  S
C595        C600   1.407       .  A
C595        C604   1.403       .  A
N596        O612   1.262       .  A
N596       O2851   1.262       .  A
N598        O609   1.262       .  A
N598        O610   1.262       .  A
C600        C601   1.395       .  A
C600        N605   1.429       .  S
C601        C602   1.402       .  A
C601        H606   1.085       .  S
C602        C603   1.410       .  A
C603        C604   1.403       .  A
C603        N607   1.428       .  S
C604        H608   1.085       .  S
N605        O615   1.262       .  A
N605        O616   1.262       .  A
N607        O613   1.262       .  A
N607        O614   1.262       .  A
O611       N2836   1.262   1_455  A
C617        C618   1.401       .  A
C617        C622   1.404       .  A
C617        H627   1.086       .  S
C618        C623   1.491       .  S
C618        C619   1.412       .  A
C619        C620   1.406       .  A
C619        N624   1.428       .  S
C620        C621   1.404       .  A
C620        H625   1.086       .  S
C621        C622   1.416       .  A
C622        N626   1.429       .  S
C623        C628   1.407       .  A
C623        C632   1.407       .  A
N624        O639   1.262       .  A
N624        O640   1.261       .  A
N626        O637   1.262       .  A
N626        O638   1.262       .  A
C628        C629   1.400       .  A
C628        N633   1.429       .  S
C629        C630   1.410       .  A
C629        H634   1.084       .  S
C630        C631   1.414       .  A
C631        C632   1.411       .  A
C631        N635   1.427       .  S
C632        H636   1.084       .  S
N633        O643   1.262       .  A
N633        O644   1.261       .  A
N635        O641   1.262       .  A
N635        O642   1.262       .  A
C645        C646   1.400       .  A
C645        C650   1.402       .  A
C645        H655   1.087       .  S
C646        C651   1.486       .  S
C646        C647   1.410       .  A
C647        C648   1.404       .  A
C647        N652   1.428       .  S
C648        C649   1.404       .  A
C648       H2893   1.086       .  S
C649        C650   1.416       .  A
C650        N654   1.429       .  S
C651        C656   1.406       .  A
C651        C660   1.404       .  A
N652        O668   1.262       .  A
N652       O2907   1.262       .  A
H653       C2888   1.086   1_455  S
N654        O665   1.262       .  A
N654        O666   1.262       .  A
C656        C657   1.399       .  A
C656        N661   1.428       .  S
C657        C658   1.408       .  A
C657        H662   1.085       .  S
C658        C659   1.417       .  A
C659        C660   1.407       .  A
C659        N663   1.428       .  S
C660        H664   1.086       .  S
N661        O671   1.262       .  A
N661        O672   1.262       .  A
N663        O669   1.262       .  A
N663        O670   1.262       .  A
O667       N2892   1.262       .  A
C673        C674   1.400       .  A
C673        C678   1.402       .  A
C673        H683   1.086       .  S
C674        C679   1.485       .  S
C674        C675   1.412       .  A
C675        C676   1.401       .  A
C675        N680   1.429       .  S
C676        C677   1.403       .  A
C676        H681   1.086       .  S
C677        C678   1.417       .  A
C678       N2922   1.429       .  S
C679        C684   1.413       .  A
C679        C688   1.402       .  A
N680        O695   1.262       .  A
N680        O696   1.262       .  A
N682       C2918   1.429   1_455  S
N682        O693   1.262       .  A
N682        O694   1.262       .  A
C684        C685   1.403       .  A
C684        N689   1.428       .  S
C685        C686   1.401       .  A
C685        H690   1.086       .  S
C686        C687   1.409       .  A
C687        C688   1.398       .  A
C687        N691   1.429       .  S
C688        H692   1.086       .  S
N689        O699   1.262       .  A
N689        O700   1.262       .  A
N691        O697   1.262       .  A
N691        O698   1.262       .  A
C701        C702   1.405       .  A
C701        C706   1.407       .  A
C701        H711   1.086       .  S
C702        C707   1.490       .  S
C702        C703   1.407       .  A
C703        C704   1.398       .  A
C703        N708   1.428       .  S
C704        C705   1.408       .  A
C704        H709   1.086       .  S
C705        C706   1.417       .  A
C706        N710   1.428       .  S
C707        C712   1.411       .  A
C707        C716   1.405       .  A
N708        O723   1.262       .  A
N708        O724   1.262       .  A
N710        O721   1.262       .  A
N710        O722   1.262       .  A
C712        C713   1.400       .  A
C712        N717   1.428       .  S
C713        C714   1.402       .  A
C713        H718   1.086       .  S
C714        C715   1.411       .  A
C715        C716   1.405       .  A
C715        N719   1.429       .  S
C716        H720   1.085       .  S
N717        O727   1.262       .  A
N717        O728   1.262       .  A
N719        O725   1.262       .  A
N719        O726   1.262       .  A
C729        C730   1.405       .  A
C729        C734   1.404       .  A
C729        H739   1.087       .  S
C730        C735   1.478       .  S
C730        C731   1.405       .  A
C731       C2972   1.395   1_455  A
C731       N2976   1.429   1_455  S
C732       C2971   1.396       .  A
C732       C2973   1.408       .  A
C732        H737   1.087       .  S
C733        C734   1.410       .  A
C733       C2972   1.409   1_455  A
C734        N738   1.427       .  S
C735        C740   1.410       .  A
C735        C744   1.401       .  A
N736       C2971   1.429       .  S
N736        O751   1.262       .  A
N736        O752   1.262       .  A
N738        O749   1.262       .  A
N738        O750   1.262       .  A
C740        C741   1.403       .  A
C740        N745   1.428       .  S
C741        C742   1.402       .  A
C741        H746   1.085       .  S
C742        C743   1.410       .  A
C743        C744   1.398       .  A
C743        N747   1.429       .  S
C744        H748   1.085       .  S
N745        O755   1.262       .  A
N745        O756   1.262       .  A
N747        O753   1.262       .  A
N747        O754   1.262       .  A
C757        C758   1.401       .  A
C757        C762   1.401       .  A
C757        H767   1.087       .  S
C758        C763   1.490       .  S
C758        C759   1.415       .  A
C759       C3000   1.399       .  A
C759       N3004   1.429       .  S
C760       C2999   1.399       .  A
C760       C3001   1.402       .  A
C760        H765   1.087       .  S
C761        C762   1.419       .  A
C761       C3000   1.402       .  A
C762        N766   1.429       .  S
C763        C768   1.414       .  A
C763        C772   1.399       .  A
N764       C2999   1.429       .  S
N764        O779   1.262       .  A
N764        O780   1.262       .  A
N766        O777   1.262       .  A
N766        O778   1.262       .  A
C768        C769   1.405       .  A
C768        N773   1.429       .  S
C769        C770   1.407       .  A
C769        H774   1.086       .  S
C770        C771   1.417       .  A
C771        C772   1.397       .  A
C771        N775   1.428       .  S
C772        H776   1.086       .  S
N773        O783   1.262       .  A
N773        O784   1.262       .  A
N775        O781   1.262       .  A
N775        O782   1.262       .  A
C785        C786   1.401       .  A
C785        C790   1.398       .  A
C785        H795   1.087       .  S
C786        C791   1.487       .  S
C786        C787   1.413       .  A
C787        C788   1.404       .  A
C787       N3032   1.428       .  S
C788        C789   1.404       .  A
C788       H3033   1.086   1_455  S
C789        C790   1.416       .  A
C790        N794   1.429       .  S
C791        C796   1.412       .  A
C791        C800   1.401       .  A
N792       C3027   1.427       .  S
N792        O807   1.262       .  A
N792        O808   1.262       .  A
H793       C3028   1.086       .  S
N794        O805   1.262       .  A
N794        O806   1.262       .  A
C796        C797   1.406       .  A
C796        N801   1.428       .  S
C797        C798   1.406       .  A
C797        H802   1.085       .  S
C798        C799   1.414       .  A
C799        C800   1.398       .  A
C799        N803   1.429       .  S
C800        H804   1.085       .  S
N801        O811   1.262       .  A
N801        O812   1.262       .  A
N803        O809   1.262       .  A
N803        O810   1.262       .  A
C813        C814   1.399       .  A
C813        C818   1.395       .  A
C813        H823   1.086       .  S
C814        C819   1.483       .  S
C814        C815   1.414       .  A
C815        C816   1.405       .  A
C815        N820   1.428       .  S
C816        C817   1.401       .  A
C816        H821   1.085       .  S
C817        C818   1.414       .  A
C818       N3062   1.429   1_455  S
C819        C824   1.407       .  A
C819        C828   1.406       .  A
N820        O835   1.262       .  A
N820        O836   1.262       .  A
N822       C3058   1.430       .  S
N822        O833   1.262       .  A
N822        O834   1.262       .  A
C824        C825   1.398       .  A
C824        N829   1.429       .  S
C825        C826   1.409       .  A
C825        H830   1.085       .  S
C826        C827   1.412       .  A
C827        C828   1.403       .  A
C827        N831   1.428       .  S
C828        H832   1.085       .  S
N829        O839   1.262       .  A
N829        O840   1.262       .  A
N831        O837   1.262       .  A
N831        O838   1.262       .  A
C841        C842   1.404       .  A
C841        C846   1.399       .  A
C841        H851   1.086       .  S
C842        C847   1.492       .  S
C842        C843   1.416       .  A
C843        C844   1.403       .  A
C843        N848   1.428       .  S
C844        C845   1.400       .  A
C844        H849   1.086       .  S
C845        C846   1.411       .  A
C846        N850   1.429   1_554  S
C847        C852   1.409   1_565  A
C847        C856   1.409       .  A
N848        O863   1.262       .  A
N848        O864   1.262       .  A
N850        O861   1.262       .  A
N850        O862   1.262       .  A
C852        C853   1.399       .  A
C852        N857   1.430       .  S
C853        C854   1.411       .  A
C853        H858   1.084       .  S
C854        C855   1.411       .  A
C855        C856   1.406   1_545  A
C855        N859   1.427   1_545  S
C856        H860   1.084       .  S
N857        O867   1.262       .  A
N857        O868   1.262       .  A
N859        O865   1.262   1_565  A
N859        O866   1.262       .  A
C869        C870   1.404       .  A
C869        C874   1.404       .  A
C869        H879   1.085       .  S
C870        C875   1.476   1_554  S
C870        C871   1.402       .  A
C871        C872   1.393       .  A
C871        N876   1.429   1_554  S
C872        C873   1.409       .  A
C872        H877   1.085       .  S
C873        C874   1.413       .  A
C874        N878   1.428       .  S
C875        C880   1.405       .  A
C875        C884   1.404   1_556  A
N876        O891   1.262   1_556  A
N876        O892   1.262       .  A
N878        O889   1.262       .  A
N878        O890   1.262       .  A
C880        C881   1.393       .  A
C880        N885   1.429       .  S
C881        C882   1.405       .  A
C881        H886   1.085       .  S
C882        C883   1.412   1_556  A
C883        C884   1.403       .  A
C883        N887   1.428       .  S
C884        H888   1.085       .  S
N885        O895   1.262       .  A
N885        O896   1.262       .  A
N887        O893   1.262       .  A
N887        O894   1.262       .  A
C897        C898   1.411       .  A
C897        C902   1.407       .  A
C897        H907   1.084       .  S
C898        C903   1.500       .  S
C898        C899   1.413       .  A
C899        C900   1.396       .  A
C899        N904   1.430       .  S
C900        C901   1.408       .  A
C900        H905   1.086       .  S
C901        C902   1.410       .  A
C902        N906   1.427       .  S
C903        C908   1.415       .  A
C903        C912   1.409       .  A
N904        O919   1.262       .  A
N904        O920   1.262       .  A
N906        O917   1.262       .  A
N906        O918   1.262       .  A
C908        C909   1.401       .  A
C908        N913   1.430       .  S
C909        C910   1.404       .  A
C909        H914   1.086       .  S
C910        C911   1.410       .  A
C911        C912   1.404       .  A
C911        N915   1.428       .  S
C912        H916   1.084       .  S
N913        O923   1.262       .  A
N913        O924   1.262       .  A
N915        O921   1.262       .  A
N915        O922   1.262       .  A
C925        C926   1.402       .  A
C925        C930   1.405       .  A
C925        H935   1.086       .  S
C926        C931   1.499       .  S
C926        C927   1.415       .  A
C927        C928   1.409       .  A
C927        N932   1.429       .  S
C928        C929   1.407       .  A
C928        H933   1.086       .  S
C929        C930   1.419       .  A
C930        N934   1.428       .  S
C931        C936   1.411       .  A
C931        C940   1.407       .  A
N932        O947   1.262       .  A
N932        O948   1.262       .  A
N934        O945   1.262       .  A
N934        O946   1.262       .  A
C936        C937   1.404       .  A
C936        N941   1.428       .  S
C937        C938   1.408       .  A
C937        H942   1.084       .  S
C938        C939   1.416       .  A
C939        C940   1.410       .  A
C939        N943   1.428       .  S
C940        H944   1.084       .  S
N941        O951   1.262       .  A
N941        O952   1.262       .  A
N943        O949   1.262       .  A
N943        O950   1.262       .  A
C953        C954   1.403       .  A
C953        C958   1.406       .  A
C953        H963   1.086       .  S
C954        C959   1.484       .  S
C954        C955   1.406       .  A
C955        C956   1.398       .  A
C955        N960   1.428       .  S
C956        C957   1.408       .  A
C956        H961   1.085       .  S
C957        C958   1.418       .  A
C958       N3202   1.429       .  S
C959        C964   1.410       .  A
C959        C968   1.398       .  A
N960        O975   1.262       .  A
N960        O976   1.261       .  A
N962       C3198   1.428   1_455  S
N962        O973   1.262       .  A
N962        O974   1.262       .  A
C964        C965   1.404       .  A
C964        N969   1.428       .  S
C965        C966   1.407       .  A
C965        H970   1.085       .  S
C966        C967   1.419       .  A
C967        C968   1.400       .  A
C967        N971   1.429       .  S
C968        H972   1.085       .  S
N969        O979   1.262       .  A
N969        O980   1.262       .  A
N971        O977   1.262       .  A
N971        O978   1.262       .  A
C981        C982   1.405       .  A
C981        C986   1.405       .  A
C981        H991   1.086       .  S
C982        C987   1.479       .  S
C982        C983   1.404       .  A
C983        C984   1.391       .  A
C983        N988   1.430       .  S
C984        C985   1.409       .  A
C984        H989   1.086       .  S
C985        C986   1.412       .  A
C986        N990   1.427       .  S
C987        C992   1.405       .  A
C987        C996   1.403       .  A
N988       O1003   1.262       .  A
N988       O1004   1.262       .  A
N990       O1001   1.262       .  A
N990       O1002   1.262       .  A
C992        C993   1.394       .  A
C992        N997   1.429       .  S
C993        C994   1.407       .  A
C993        H998   1.085       .  S
C994        C995   1.413       .  A
C995        C996   1.403       .  A
C995        N999   1.427       .  S
C996       H1000   1.085       .  S
N997       O1007   1.262       .  A
N997       O1008   1.262       .  A
N999       O1005   1.261       .  A
N999       O1006   1.262       .  A
C1009      C1010   1.401       .  A
C1009      C1014   1.398       .  A
C1009      H1019   1.085       .  S
C1010      C1015   1.485       .  S
C1010      C1011   1.414       .  A
C1011      C1012   1.402       .  A
C1011      N1016   1.429       .  S
C1012      C1013   1.401       .  A
C1012      H1017   1.086       .  S
C1013      C1014   1.411       .  A
C1014      N1018   1.429       .  S
C1015      C1020   1.415       .  A
C1015      C1024   1.400       .  A
N1016      O1031   1.262       .  A
N1016      O1032   1.262       .  A
N1018      O1029   1.262       .  A
N1018      O1030   1.262       .  A
C1020      C1021   1.403       .  A
C1020      N1025   1.428       .  S
C1021      C1022   1.399       .  A
C1021      H1026   1.085       .  S
C1022      C1023   1.412       .  A
C1023      C1024   1.398       .  A
C1023      N3267   1.429       .  S
C1024      H1028   1.085       .  S
N1025      O1035   1.262       .  A
N1025      O1036   1.262       .  A
N1027      C3263   1.430   1_455  S
N1027      O1033   1.262       .  A
N1027      O1034   1.262       .  A
C1037      C1038   1.406       .  A
C1037      C1042   1.407       .  A
C1037      H1047   1.086       .  S
C1038      C1043   1.487       .  S
C1038      C1039   1.407       .  A
C1039      C1040   1.398       .  A
C1039      N1044   1.429       .  S
C1040      C1041   1.408       .  A
C1040      H1045   1.086       .  S
C1041      C1042   1.414       .  A
C1042      N1046   1.428       .  S
C1043      C1048   1.412       .  A
C1043      C1052   1.399       .  A
N1044      O1059   1.262       .  A
N1044      O1060   1.262       .  A
N1046      O1057   1.262       .  A
N1046      O1058   1.262       .  A
C1048      C1049   1.406       .  A
C1048      N1053   1.428       .  S
C1049      C1050   1.405       .  A
C1049      H1054   1.085       .  S
C1050      C1051   1.418       .  A
C1051      C1052   1.399       .  A
C1051      N1055   1.429       .  S
C1052      H1056   1.086       .  S
N1053      O1063   1.262       .  A
N1053      O1064   1.262       .  A
N1055      O1061   1.262       .  A
N1055      O1062   1.262       .  A
C1065      C1066   1.399       .  A
C1065      C1070   1.397       .  A
C1065      H1075   1.084       .  S
C1066      C1071   1.477       .  S
C1066      C1067   1.411       .  A
C1067      C1068   1.397       .  A
C1067      N1072   1.429       .  S
C1068      C1069   1.402       .  A
C1068      H1073   1.084       .  S
C1069      C1070   1.415       .  A
C1070      N1074   1.429       .  S
C1071      C1076   1.413       .  A
C1071      C1080   1.396       .  A
N1072      O1087   1.262       .  A
N1072      O1088   1.262       .  A
N1074      O1085   1.262       .  A
N1074      O1086   1.262       .  A
C1076      C1077   1.402       .  A
C1076      N1081   1.428       .  S
C1077      C1078   1.398       .  A
C1077      H1082   1.085       .  S
C1078      C1079   1.417       .  A
C1079      C1080   1.393       .  A
C1079      N1083   1.431       .  S
C1080      H1084   1.085       .  S
N1081      O1091   1.262       .  A
N1081      O1092   1.262       .  A
N1083      O1089   1.262       .  A
N1083      O1090   1.262       .  A
C1093      C1094   1.400       .  A
C1093      C1098   1.395       .  A
C1093      H1103   1.085       .  S
C1094      C1099   1.478       .  S
C1094      C1095   1.412       .  A
C1095      C1096   1.402       .  A
C1095      N1100   1.428       .  S
C1096      C1097   1.401       .  A
C1096      H1101   1.084       .  S
C1097      C1098   1.412       .  A
C1098      N1102   1.430       .  S
C1099      C1104   1.407       .  A
C1099      C1108   1.405       .  A
N1100      O1115   1.262       .  A
N1100      O1116   1.262       .  A
N1102      O1113   1.262       .  A
N1102      O1114   1.262       .  A
C1104      C1105   1.395       .  A
C1104      N1109   1.429       .  S
C1105      C1106   1.406       .  A
C1105      H1110   1.085       .  S
C1106      C1107   1.410       .  A
C1107      C1108   1.401       .  A
C1107      N1111   1.428       .  S
C1108      H1112   1.085       .  S
N1109      O1119   1.262       .  A
N1109      O1120   1.262       .  A
N1111      O1117   1.262       .  A
N1111      O1118   1.262       .  A
C1121      C1122   1.404       .  A
C1121      C1126   1.406       .  A
C1121      H1131   1.085       .  S
C1122      C1127   1.479       .  S
C1122      C1123   1.407       .  A
C1123      C1124   1.394       .  A
C1123      N1128   1.429       .  S
C1124      C1125   1.403       .  A
C1124      H1129   1.086       .  S
C1125      C1126   1.413       .  A
C1126      N1130   1.428       .  S
C1127      C1132   1.410       .  A
C1127      C1136   1.397       .  A
N1128      O1143   1.262       .  A
N1128      O1144   1.261       .  A
N1130      O1141   1.262       .  A
N1130      O1142   1.262       .  A
C1132      C1133   1.402       .  A
C1132      N1137   1.429       .  S
C1133      C1134   1.405       .  A
C1133      H1138   1.085       .  S
C1134      C1135   1.418       .  A
C1135      C1136   1.398       .  A
C1135      N1139   1.429       .  S
C1136      H1140   1.086       .  S
N1137      O1147   1.262       .  A
N1137      O1148   1.261       .  A
N1139      O1145   1.262       .  A
N1139      O1146   1.262       .  A
C1149      C1150   1.406       .  A
C1149      C1154   1.406       .  A
C1149      H1159   1.085       .  S
C1150      C1155   1.482       .  S
C1150      C1151   1.405       .  A
C1151      C1152   1.393       .  A
C1151      N1156   1.429       .  S
C1152      C1153   1.408       .  A
C1152      H1157   1.085       .  S
C1153      C1154   1.413       .  A
C1154      N1158   1.428       .  S
C1155      C1160   1.408       .  A
C1155      C1164   1.404       .  A
N1156      O1171   1.262       .  A
N1156      O1172   1.262       .  A
N1158      O1169   1.262   1_455  A
N1158      O3410   1.262   1_455  A
C1160      C1161   1.398       .  A
C1160      N1165   1.429   1_556  S
C1161      C1162   1.404       .  A
C1161      H1166   1.086       .  S
C1162      C1163   1.410       .  A
C1163      C1164   1.402       .  A
C1163      N1167   1.428       .  S
C1164      H1168   1.085       .  S
N1165      O1175   1.262       .  A
N1165      O1176   1.262       .  A
N1167      O1173   1.262       .  A
N1167      O1174   1.262       .  A
O1170      N3398   1.262       .  A
C1177      C1178   1.401       .  A
C1177      C1182   1.402       .  A
C1177      H1187   1.086       .  S
C1178      C1183   1.494       .  S
C1178      C1179   1.414       .  A
C1179      C1180   1.403       .  A
C1179      N1184   1.429       .  S
C1180      C1181   1.405       .  A
C1180      H1185   1.086       .  S
C1181      C1182   1.419       .  A
C1182      N1186   1.429       .  S
C1183      C1188   1.414       .  A
C1183      C1192   1.402       .  A
N1184      O1199   1.262       .  A
N1184      O1200   1.262       .  A
N1186      O1197   1.262   1_554  A
N1186      O1198   1.262       .  A
C1188      C1189   1.402       .  A
C1188      N1193   1.429       .  S
C1189      C1190   1.406       .  A
C1189      H1194   1.086       .  S
C1190      C1191   1.418       .  A
C1191      C1192   1.403       .  A
C1191      N1195   1.428       .  S
C1192      H1196   1.086       .  S
N1193      O1203   1.262       .  A
N1193      O1204   1.262       .  A
N1195      O1201   1.262       .  A
N1195      O1202   1.262       .  A
C1205      C1206   1.409       .  A
C1205      C1210   1.408       .  A
C1205      H1215   1.084       .  S
C1206      C1211   1.485       .  S
C1206      C1207   1.409       .  A
C1207      C1208   1.397       .  A
C1207      N1212   1.429       .  S
C1208      C1209   1.402       .  A
C1208      H1213   1.085       .  S
C1209      C1210   1.408       .  A
C1210      N1214   1.429       .  S
C1211      C1216   1.415       .  A
C1211      C1220   1.397       .  A
N1212      O1227   1.262       .  A
N1212      O1228   1.262       .  A
N1214      O1225   1.262       .  A
N1214      O1226   1.262       .  A
C1216      C1217   1.406       .  A
C1216      N1221   1.429       .  S
C1217      C1218   1.403       .  A
C1217      H1222   1.085       .  S
C1218      C1219   1.416       .  A
C1219      C1220   1.397       .  A
C1219      N1223   1.429       .  S
C1220      H1224   1.086       .  S
N1221      O3471   1.262       .  A
N1221      O3472   1.262       .  A
N1223      O1229   1.262       .  A
N1223      O1230   1.262       .  A
O1231      N3461   1.262       .  A
O1232      N3461   1.262       .  A
C1233      C1234   1.399       .  A
C1233      C1238   1.400       .  A
C1233      H1243   1.085       .  S
C1234      C1239   1.481       .  S
C1234      C1235   1.409       .  A
C1235      C1236   1.404       .  A
C1235      N1240   1.428       .  S
C1236      C1237   1.407       .  A
C1236      H1241   1.084       .  S
C1237      C1238   1.418       .  A
C1238      N1242   1.429       .  S
C1239      C1244   1.411       .  A
C1239      C1248   1.400       .  A
N1240      O1255   1.262       .  A
N1240      O1256   1.262       .  A
N1242      O1253   1.262   1_554  A
N1242      O1254   1.262       .  A
C1244      C1245   1.402       .  A
C1244      N1249   1.428       .  S
C1245      C1246   1.404       .  A
C1245      H1250   1.086       .  S
C1246      C1247   1.415       .  A
C1247      C1248   1.399       .  A
C1247      N1251   1.429       .  S
C1248      H1252   1.086       .  S
N1249      O1259   1.262       .  A
N1249      O1260   1.262       .  A
N1251      O1257   1.262       .  A
N1251      O1258   1.262       .  A
C1261      C1262   1.398       .  A
C1261      C1266   1.397       .  A
C1261      H1271   1.086       .  S
C1262      C1267   1.473       .  S
C1262      C1263   1.408       .  A
C1263      C1264   1.397       .  A
C1263      N1268   1.428       .  S
C1264      C1265   1.401       .  A
C1264      H1269   1.086       .  S
C1265      C1266   1.416       .  A
C1266      N1270   1.430       .  S
C1267      C1272   1.403       .  A
C1267      C1276   1.403       .  A
N1268      O1283   1.262       .  A
N1268      O1284   1.261       .  A
N1270      O1281   1.262   1_556  A
N1270      O1282   1.262       .  A
C1272      C1273   1.390       .  A
C1272      N1277   1.430       .  S
C1273      C1274   1.408       .  A
C1273      H1278   1.086       .  S
C1274      C1275   1.414       .  A
C1275      C1276   1.405       .  A
C1275      N1279   1.428       .  S
C1276      H1280   1.086       .  S
N1277      O1287   1.262       .  A
N1277      O1288   1.262       .  A
N1279      O1285   1.262       .  A
N1279      O1286   1.262       .  A
C1289      C1290   1.403       .  A
C1289      C1294   1.405       .  A
C1289      H1299   1.085       .  S
C1290      C1295   1.481       .  S
C1290      C1291   1.410       .  A
C1291      C1292   1.400       .  A
C1291      N1296   1.429       .  S
C1292      C1293   1.404       .  A
C1292      H1297   1.085       .  S
C1293      C1294   1.411       .  A
C1294      N1298   1.428       .  S
C1295      C1300   1.410       .  A
C1295      C1304   1.395       .  A
N1296      O3551   1.262       .  A
N1296      O3552   1.262       .  A
N1298      O1309   1.262       .  A
N1298      O1310   1.262       .  A
C1300      C1301   1.405       .  A
C1300      N1305   1.427       .  S
C1301      C1302   1.405       .  A
C1301      H1306   1.085       .  S
C1302      C1303   1.423       .  A
C1303      C1304   1.397       .  A
C1303      N3547   1.429       .  S
C1304      H1308   1.086       .  S
N1305      O1315   1.262       .  A
N1305      O1316   1.262       .  A
N1307      C3543   1.429   1_455  S
N1307      O1313   1.262       .  A
N1307      O1314   1.262       .  A
O1311      N3536   1.262       .  A
O1312      N3536   1.262       .  A
C1317      C1318   1.406       .  A
C1317      C1322   1.407       .  A
C1317      H1327   1.086       .  S
C1318      C1323   1.484       .  S
C1318      C1319   1.406       .  A
C1319      C1320   1.395       .  A
C1319      N1324   1.429       .  S
C1320      C1321   1.409       .  A
C1320      H1325   1.086       .  S
C1321      C1322   1.413       .  A
C1322      N1326   1.428       .  S
C1323      C1328   1.412       .  A
C1323      C1332   1.400       .  A
N1324      O1339   1.262       .  A
N1324      O1340   1.262       .  A
N1326      O1337   1.262       .  A
N1326      O1338   1.262       .  A
C1328      C1329   1.404       .  A
C1328      N1333   1.428       .  S
C1329      C1330   1.405       .  A
C1329      H1334   1.085       .  S
C1330      C1331   1.415       .  A
C1331      C1332   1.398       .  A
C1331      N1335   1.429       .  S
C1332      H1336   1.086       .  S
N1333      O1343   1.262       .  A
N1333      O1344   1.262       .  A
N1335      O1341   1.262       .  A
N1335      O1342   1.262       .  A
C1345      C1346   1.408   1_545  A
C1345      C1350   1.408       .  A
C1345      H1355   1.085   1_545  S
C1346      C1351   1.500       .  S
C1346      C1347   1.413   1_565  A
C1347      C1348   1.401       .  A
C1347      N1352   1.429       .  S
C1348      C1349   1.405       .  A
C1348      H1353   1.086       .  S
C1349      C1350   1.412       .  A
C1350      N1354   1.428       .  S
C1351      C1356   1.411       .  A
C1351      C1360   1.409       .  A
N1352      O1367   1.262       .  A
N1352      O1368   1.262       .  A
N1354      O1365   1.262       .  A
N1354      O1366   1.262       .  A
C1356      C1357   1.400       .  A
C1356      N1361   1.429       .  S
C1357      C1358   1.410       .  A
C1357      H1362   1.085       .  S
C1358      C1359   1.414       .  A
C1359      C1360   1.409       .  A
C1359      N1363   1.428       .  S
C1360      H1364   1.085   1_565  S
N1361      O1371   1.262       .  A
N1361      O1372   1.262       .  A
N1363      O1369   1.262       .  A
N1363      O1370   1.262       .  A
C1373      C1374   1.406       .  A
C1373      C1378   1.404       .  A
C1373      H1383   1.085       .  S
C1374      C1379   1.486       .  S
C1374      C1375   1.408       .  A
C1375      C1376   1.399       .  A
C1375      N1380   1.429       .  S
C1376      C1377   1.409       .  A
C1376      H1381   1.085       .  S
C1377      C1378   1.412       .  A
C1378      N1382   1.427       .  S
C1379      C1384   1.414       .  A
C1379      C1388   1.402       .  A
N1380      O1395   1.262       .  A
N1380      O1396   1.262       .  A
N1382      O1393   1.262       .  A
N1382      O1394   1.261       .  A
C1384      C1385   1.404       .  A
C1384      N1389   1.428       .  S
C1385      C1386   1.403       .  A
C1385      H1390   1.086       .  S
C1386      C1387   1.410       .  A
C1387      C1388   1.396       .  A
C1387      N1391   1.429       .  S
C1388      H1392   1.086       .  S
N1389      O1399   1.262       .  A
N1389      O1400   1.262       .  A
N1391      O1397   1.262       .  A
N1391      O1398   1.262       .  A
C1401      C1402   1.406       .  A
C1401      C1406   1.410       .  A
C1401      H1411   1.085       .  S
C1402      C1407   1.479       .  S
C1402      C1403   1.402       .  A
C1403      C1404   1.391       .  A
C1403      N1408   1.429       .  S
C1404      C1405   1.408       .  A
C1404      H1409   1.085       .  S
C1405      C1406   1.417       .  A
C1406      N1410   1.428       .  S
C1407      C1412   1.411       .  A
C1407      C1416   1.395       .  A
N1408      O1423   1.262       .  A
N1408      O1424   1.261       .  A
N1410      O1421   1.262       .  A
N1410      O1422   1.262       .  A
C1412      C1413   1.407       .  A
C1412      N1417   1.428       .  S
C1413      C1414   1.405       .  A
C1413      H1418   1.085       .  S
C1414      C1415   1.418       .  A
C1415      C1416   1.395       .  A
C1415      N1419   1.428       .  S
C1416      H1420   1.086       .  S
N1417      O1427   1.262       .  A
N1417      O1428   1.261       .  A
N1419      O1425   1.261       .  A
N1419      O1426   1.262       .  A
C1429      C1430   1.402       .  A
C1429      C1434   1.404       .  A
C1429      H1439   1.086       .  S
C1430      C1435   1.496       .  S
C1430      C1431   1.415       .  A
C1431      C1432   1.404       .  A
C1431      N1436   1.429       .  S
C1432      C1433   1.404       .  A
C1432      H1437   1.086       .  S
C1433      C1434   1.419       .  A
C1434      N1438   1.429       .  S
C1435      C1440   1.415       .  A
C1435      C1444   1.399       .  A
N1436      O1451   1.262       .  A
N1436      O1452   1.262       .  A
N1438      O1449   1.262       .  A
N1438      O1450   1.262       .  A
C1440      C1441   1.408       .  A
C1440      N1445   1.428       .  S
C1441      C1442   1.405       .  A
C1441      H1446   1.086       .  S
C1442      C1443   1.420       .  A
C1443      C1444   1.401       .  A
C1443      N1447   1.429       .  S
C1444      H1448   1.086       .  S
N1445      O1455   1.262       .  A
N1445      O1456   1.262       .  A
N1447      O1453   1.262       .  A
N1447      O1454   1.261       .  A
C1457      C1458   1.405       .  A
C1457      C1462   1.406       .  A
C1457      H1467   1.085       .  S
C1458      C1463   1.487       .  S
C1458      C1459   1.407       .  A
C1459      C1460   1.400       .  A
C1459      N1464   1.429       .  S
C1460      C1461   1.410       .  A
C1460      H1465   1.084       .  S
C1461      C1462   1.415       .  A
C1462      N1466   1.428       .  S
C1463      C1468   1.413       .  A
C1463      C1472   1.398       .  A
N1464      O1479   1.262       .  A
N1464      O1480   1.262       .  A
N1466      O1477   1.262       .  A
N1466      O1478   1.262       .  A
C1468      C1469   1.405       .  A
C1468      N1473   1.428       .  S
C1469      C1470   1.405       .  A
C1469      H1474   1.085       .  S
C1470      C1471   1.420       .  A
C1471      C1472   1.398       .  A
C1471      N1475   1.430       .  S
C1472      H1476   1.086       .  S
N1473      O1483   1.262       .  A
N1473      O1484   1.262       .  A
N1475      O1481   1.262       .  A
N1475      O1482   1.261       .  A
C1485      C1486   1.405       .  A
C1485      C1490   1.407       .  A
C1485      H1495   1.084       .  S
C1486      C1491   1.485       .  S
C1486      C1487   1.406       .  A
C1487      C1488   1.399       .  A
C1487      N1492   1.428       .  S
C1488      C1489   1.407       .  A
C1488      H1493   1.084       .  S
C1489      C1490   1.415       .  A
C1490      N1494   1.428       .  S
C1491      C1496   1.411       .  A
C1491      C1500   1.401       .  A
N1492      O1507   1.262       .  A
N1492      O1508   1.261       .  A
N1494      O1505   1.262       .  A
N1494      O1506   1.262       .  A
C1496      C1497   1.404       .  A
C1496      N1501   1.429       .  S
C1497      C1498   1.404       .  A
C1497      H1502   1.085       .  S
C1498      C1499   1.413       .  A
C1499      C1500   1.401       .  A
C1499      N1503   1.429       .  S
C1500      H1504   1.085       .  S
N1501      O1511   1.262       .  A
N1501      O1512   1.261       .  A
N1503      O1509   1.262       .  A
N1503      O1510   1.262       .  A
C1513      C1514   1.402       .  A
C1513      C1518   1.406       .  A
C1513      H1523   1.086       .  S
C1514      C1519   1.481       .  S
C1514      C1515   1.404       .  A
C1515      C1516   1.398       .  A
C1515      N1520   1.428       .  S
C1516      C1517   1.409       .  A
C1516      H1521   1.085       .  S
C1517      C1518   1.416       .  A
C1518      N1522   1.428       .  S
C1519      C1524   1.404       .  A
C1519      C1528   1.403       .  A
N1520      O1535   1.262       .  A
N1520      O1536   1.262       .  A
N1522      O1533   1.262       .  A
N1522      O1534   1.262       .  A
C1524      C1525   1.397       .  A
C1524      N1529   1.428       .  S
C1525      C1526   1.410       .  A
C1525      H1530   1.085       .  S
C1526      C1527   1.417       .  A
C1527      C1528   1.407       .  A
C1527      N1531   1.429       .  S
C1528      H1532   1.085       .  S
N1529      O1539   1.262       .  A
N1529      O1540   1.262       .  A
N1531      O1537   1.262       .  A
N1531      O1538   1.261       .  A
C1541      C1542   1.408       .  A
C1541      C1546   1.406       .  A
C1541      H1551   1.084       .  S
C1542      C1547   1.491       .  S
C1542      C1543   1.410       .  A
C1543      C1544   1.394       .  A
C1543      N1548   1.430       .  S
C1544      C1545   1.408       .  A
C1544      H1549   1.085       .  S
C1545      C1546   1.412       .  A
C1546      N1550   1.428       .  S
C1547      C1552   1.415       .  A
C1547      C1556   1.406       .  A
N1548      O1563   1.262       .  A
N1548      O1564   1.262       .  A
N1550      O1561   1.262       .  A
N1550      O1562   1.262       .  A
C1552      C1553   1.401       .  A
C1552      N1557   1.429       .  S
C1553      C1554   1.399       .  A
C1553      H1558   1.085       .  S
C1554      C1555   1.406       .  A
C1555      C1556   1.399       .  A
C1555      N1559   1.429       .  S
C1556      H1560   1.084       .  S
N1557      O1567   1.262       .  A
N1557      O1568   1.262       .  A
N1559      O1565   1.261       .  A
N1559      O1566   1.262       .  A
C1569      C1570   1.406       .  A
C1569      C1574   1.406       .  A
C1569      H1579   1.086       .  S
C1570      C1575   1.491       .  S
C1570      C1571   1.408       .  A
C1571      C1572   1.398       .  A
C1571      N1576   1.428       .  S
C1572      C1573   1.408       .  A
C1572      H1577   1.086       .  S
C1573      C1574   1.415       .  A
C1574      N1578   1.428       .  S
C1575      C1580   1.406       .  A
C1575      C1584   1.408       .  A
N1576      O1591   1.262       .  A
N1576      O1592   1.262       .  A
N1578      O1589   1.262       .  A
N1578      O1590   1.262       .  A
C1580      C1581   1.393       .  A
C1580      N1585   1.428       .  S
C1581      C1582   1.407       .  A
C1581      H1586   1.086       .  S
C1582      C1583   1.417       .  A
C1583      C1584   1.411       .  A
C1583      N1587   1.428       .  S
C1584      H1588   1.086       .  S
N1585      O1595   1.262       .  A
N1585      O1596   1.262       .  A
N1587      O1593   1.262       .  A
N1587      O1594   1.262       .  A
C1597      C1598   1.406       .  A
C1597      C1602   1.404       .  A
C1597      H1607   1.085       .  S
C1598      C1603   1.491       .  S
C1598      C1599   1.412   1_556  A
C1599      C1600   1.397       .  A
C1599      N1604   1.428       .  S
C1600      C1601   1.402       .  A
C1600      H1605   1.086       .  S
C1601      C1602   1.413   1_554  A
C1602      N1606   1.429       .  S
C1603      C1608   1.408       .  A
C1603      C1612   1.407       .  A
N1604      O1619   1.262       .  A
N1604      O1620   1.261       .  A
N1606      O1617   1.262       .  A
N1606      O3858   1.262       .  A
C1608      C1609   1.396       .  A
C1608      N1613   1.429       .  S
C1609      C1610   1.408       .  A
C1609      H1614   1.085       .  S
C1610      C1611   1.414       .  A
C1611      C1612   1.406       .  A
C1611      N1615   1.428       .  S
C1612      H1616   1.085       .  S
N1613      O1623   1.262       .  A
N1613      O1624   1.262       .  A
N1615      O1621   1.262       .  A
N1615      O1622   1.262   1_556  A
O1618      N3846   1.262       .  A
C1625      C1626   1.397       .  A
C1625      C1630   1.397       .  A
C1625      H1635   1.086       .  S
C1626      C1631   1.479       .  S
C1626      C1627   1.411       .  A
C1627      C1628   1.399       .  A
C1627      N1632   1.428       .  S
C1628      C1629   1.403       .  A
C1628      H1633   1.086       .  S
C1629      C1630   1.419       .  A
C1630      N1634   1.430       .  S
C1631      C1636   1.411       .  A
C1631      C1640   1.398       .  A
N1632      O1647   1.262   1_455  A
N1632      O3888   1.261   1_455  A
N1634      O1645   1.261       .  A
N1634      O1646   1.262       .  A
C1636      C1637   1.400       .  A
C1636      N1641   1.428       .  S
C1637      C1638   1.403       .  A
C1637      H1642   1.086       .  S
C1638      C1639   1.417       .  A
C1639      C1640   1.395       .  A
C1639      N1643   1.429   1_455  S
C1640      H1644   1.086       .  S
N1641      O1651   1.262       .  A
N1641      O1652   1.262       .  A
N1643      O1649   1.262   1_655  A
N1643      O1650   1.262       .  A
O1648      N3872   1.261       .  A
C1653      C1654   1.407   1_455  A
C1653      C1658   1.405       .  A
C1653      H1663   1.084       .  S
C1654      C3899   1.488       .  S
C1654      C1655   1.407       .  A
C1655      C1656   1.396   1_655  A
C1655      N3900   1.429       .  S
C1656      C1657   1.408       .  A
C1656      H1661   1.085   1_455  S
C1657      C1658   1.412       .  A
C1658      N1662   1.428       .  S
C1659      C3894   1.488       .  S
C1659      C1664   1.410       .  A
C1659      C1668   1.406       .  A
N1660      C3895   1.429       .  S
N1660      O1675   1.262       .  A
N1660      O1676   1.262       .  A
N1662      O1673   1.262       .  A
N1662      O1674   1.262       .  A
C1664      C1665   1.397       .  A
C1664      N3909   1.429       .  S
C1665      C1666   1.404       .  A
C1665      H1670   1.085       .  S
C1666      C1667   1.412       .  A
C1667      C1668   1.406       .  A
C1667      N1671   1.428       .  S
C1668      H1672   1.085       .  S
N1669      C3904   1.429       .  S
N1669      O1679   1.262   1_655  A
N1669      O1680   1.262   1_556  A
N1671      O1677   1.262       .  A
N1671      O1678   1.262       .  A
C1681      C1682   1.406       .  A
C1681      C1686   1.404       .  A
C1681      H1691   1.085       .  S
C1682      C1687   1.477       .  S
C1682      C1683   1.405       .  A
C1683      C1684   1.386       .  A
C1683      N1688   1.430       .  S
C1684      C1685   1.407       .  A
C1684      H1689   1.085       .  S
C1685      C1686   1.412       .  A
C1686      N1690   1.428       .  S
C1687      C1692   1.407       .  A
C1687      C1696   1.402       .  A
N1688      O1703   1.262       .  A
N1688      O1704   1.262       .  A
N1690      O1701   1.262       .  A
N1690      O1702   1.262   1_556  A
C1692      C1693   1.395       .  A
C1692      N1697   1.429       .  S
C1693      C1694   1.407       .  A
C1693      H1698   1.086       .  S
C1694      C1695   1.410       .  A
C1695      C1696   1.397       .  A
C1695      N1699   1.426       .  S
C1696      H1700   1.085       .  S
N1697      O1707   1.262       .  A
N1697      O1708   1.262       .  A
N1699      O1705   1.260   1_556  A
N1699      O1706   1.262       .  A
C1709      C1710   1.407       .  A
C1709      C1714   1.406       .  A
C1709      H1719   1.086       .  S
C1710      C1715   1.496       .  S
C1710      C1711   1.413       .  A
C1711      C1712   1.399       .  A
C1711      N1716   1.430       .  S
C1712      C1713   1.405       .  A
C1712      H1717   1.087       .  S
C1713      C1714   1.412       .  A
C1714      N1718   1.428       .  S
C1715      C1720   1.412       .  A
C1715      C1724   1.408       .  A
N1716      O1731   1.262       .  A
N1716      O1732   1.262       .  A
N1718      O1730   1.262       .  A
N1718      O3969   1.262       .  A
C1720      C1721   1.399       .  A
C1720      N1725   1.429   1_455  S
C1721      C1722   1.407       .  A
C1721      H3966   1.086   1_455  S
C1722      C2602   1.490       .  S
C1722      C1723   1.411       .  A
C1723      C1724   1.407       .  A
C1723      N1727   1.427       .  S
C1724      H1728   1.085       .  S
N1725      O1736   1.262       .  A
N1725      O3975   1.262       .  A
H1726      C3961   1.086       .  S
N1727      O1733   1.262       .  A
N1727      O1734   1.262       .  A
O1729      N3958   1.262       .  A
O1735      N3965   1.262       .  A
C1737      C1738   1.396   1_655  A
C1737      C1742   1.398   1_655  A
C1737      H1747   1.085       .  S
C1738      C3983   1.483   1_455  S
C1738      C1739   1.411       .  A
C1739      C1740   1.410       .  A
C1739      N3984   1.429       .  S
C1740      C1741   1.406       .  A
C1740      H1745   1.084       .  S
C1741      C1742   1.416       .  A
C1742      N1746   1.429       .  S
C1743      C3978   1.483       .  S
C1743      C1748   1.409       .  A
C1743      C1752   1.402       .  A
N1744      C3979   1.429       .  S
N1744      O1759   1.262       .  A
N1744      O1760   1.262       .  A
N1746      O1757   1.262   1_455  A
N1746      O1758   1.262       .  A
C1748      C1749   1.401       .  A
C1748      N3993   1.428       .  S
C1749      C1750   1.403       .  A
C1749      H1754   1.086       .  S
C1750      C1751   1.413       .  A
C1751      C1752   1.403       .  A
C1751      N1755   1.429       .  S
C1752      H1756   1.086       .  S
N1753      C3988   1.428       .  S
N1753      O1763   1.262       .  A
N1753      O1764   1.262       .  A
N1755      O1761   1.262       .  A
N1755      O1762   1.262       .  A
C1765      C1766   1.400       .  A
C1765      C1770   1.402       .  A
C1765      H1775   1.085       .  S
C1766      C1771   1.492       .  S
C1766      C1767   1.415       .  A
C1767      C1768   1.408       .  A
C1767      N1772   1.428       .  S
C1768      C1769   1.403       .  A
C1768      H1773   1.085       .  S
C1769      C1770   1.418       .  A
C1770      N1774   1.429       .  S
C1771      C1776   1.410       .  A
C1771      C1780   1.406       .  A
N1772      O1787   1.262       .  A
N1772      O1788   1.262       .  A
N1774      O1785   1.262       .  A
N1774      O1786   1.262       .  A
C1776      C1777   1.401       .  A
C1776      N1781   1.428       .  S
C1777      C1778   1.404       .  A
C1777      H1782   1.086       .  S
C1778      C1779   1.414       .  A
C1779      C1780   1.408       .  A
C1779      N1783   1.429       .  S
C1780      H1784   1.086       .  S
N1781      O1791   1.262       .  A
N1781      O1792   1.262       .  A
N1783      O1789   1.262       .  A
N1783      O1790   1.262       .  A
C1793      C1794   1.406       .  A
C1793      C1798   1.407       .  A
C1793      H1803   1.086       .  S
C1794      C1799   1.489       .  S
C1794      C1795   1.408       .  A
C1795      C1796   1.396       .  A
C1795      N1800   1.429       .  S
C1796      C1797   1.407       .  A
C1796      H1801   1.086       .  S
C1797      C1798   1.414       .  A
C1798      N1802   1.428       .  S
C1799      C1804   1.409       .  A
C1799      C1808   1.405       .  A
N1800      O1815   1.262       .  A
N1800      O1816   1.262       .  A
N1802      O1813   1.262       .  A
N1802      O1814   1.262       .  A
C1804      C1805   1.398       .  A
C1804      N1809   1.429       .  S
C1805      C1806   1.407       .  A
C1805      H1810   1.086       .  S
C1806      C1807   1.414       .  A
C1807      C1808   1.405       .  A
C1807      N1811   1.428       .  S
C1808      H1812   1.086       .  S
N1809      O1819   1.262       .  A
N1809      O1820   1.262       .  A
N1811      O1817   1.262       .  A
N1811      O1818   1.262       .  A
C1821      C1822   1.404       .  A
C1821      C1826   1.399       .  A
C1821      H1831   1.086       .  S
C1822      C1827   1.491       .  S
C1822      C1823   1.415       .  A
C1823      C1824   1.403       .  A
C1823      N1828   1.429       .  S
C1824      C1825   1.403       .  A
C1824      H1829   1.087       .  S
C1825      C1826   1.409       .  A
C1826      N1830   1.428       .  S
C1827      C1832   1.409       .  A
C1827      C1836   1.408       .  A
N1828      O1843   1.262       .  A
N1828      O1844   1.262       .  A
N1830      O1841   1.262       .  A
N1830      O1842   1.262       .  A
C1832      C1833   1.399       .  A
C1832      N1837   1.429       .  S
C1833      C1834   1.411       .  A
C1833      H1838   1.085       .  S
C1834      C1835   1.412       .  A
C1835      C1836   1.405       .  A
C1835      N1839   1.427       .  S
C1836      H1840   1.085       .  S
N1837      O1847   1.262       .  A
N1837      O1848   1.262       .  A
N1839      O1845   1.262       .  A
N1839      O1846   1.262       .  A
C1849      C1850   1.400       .  A
C1849      C1854   1.403       .  A
C1849      H1859   1.085       .  S
C1850      C1855   1.489       .  S
C1850      C1851   1.411       .  A
C1851      C1852   1.404       .  A
C1851      N1856   1.428       .  S
C1852      C1853   1.406       .  A
C1852      H1857   1.085       .  S
C1853      C1854   1.421       .  A
C1854      N1858   1.429       .  S
C1855      C1860   1.411       .  A
C1855      C1864   1.408       .  A
N1856      O1871   1.262       .  A
N1856      O1872   1.262       .  A
N1858      O1869   1.262       .  A
N1858      O1870   1.262       .  A
C1860      C1861   1.398       .  A
C1860      N1865   1.428       .  S
C1861      C1862   1.400       .  A
C1861      H1866   1.085       .  S
C1862      C1863   1.410       .  A
C1863      C1864   1.407       .  A
C1863      N1867   1.429       .  S
C1864      H1868   1.084       .  S
N1865      O1875   1.262       .  A
N1865      O1876   1.262       .  A
N1867      O1873   1.262       .  A
N1867      O1874   1.262       .  A
C1877      C1878   1.401       .  A
C1877      C1882   1.396       .  A
C1877      H1887   1.085       .  S
C1878      C1883   1.484       .  S
C1878      C1879   1.413       .  A
C1879      C1880   1.401       .  A
C1879      N1884   1.428       .  S
C1880      C1881   1.402       .  A
C1880      H1885   1.086       .  S
C1881      C1882   1.414       .  A
C1882      N1886   1.429       .  S
C1883      C1888   1.414       .  A
C1883      C1892   1.401       .  A
N1884      O1899   1.262       .  A
N1884      O1900   1.262       .  A
N1886      O1897   1.262       .  A
N1886      O1898   1.262       .  A
C1888      C1889   1.398       .  A
C1888      N1893   1.430       .  S
C1889      C1890   1.403       .  A
C1889      H1894   1.086       .  S
C1890      C1891   1.416       .  A
C1891      C1892   1.400       .  A
C1891      N1895   1.429       .  S
C1892      H1896   1.086       .  S
N1893      O1903   1.262       .  A
N1893      O1904   1.262       .  A
N1895      O1901   1.262       .  A
N1895      O1902   1.262       .  A
C1905      C1906   1.402       .  A
C1905      C1910   1.406       .  A
C1905      H1915   1.085       .  S
C1906      C1911   1.495       .  S
C1906      C1907   1.413       .  A
C1907      C1908   1.406       .  A
C1907      N4152   1.428   1_455  S
C1908      C1909   1.406       .  A
C1908      H1913   1.085       .  S
C1909      C1910   1.419       .  A
C1910      N1914   1.428       .  S
C1911      C1916   1.413       .  A
C1911      C1920   1.402       .  A
N1912      C4147   1.429       .  S
N1912      O1927   1.262       .  A
N1912      O1928   1.262       .  A
N1914      O1925   1.262       .  A
N1914      O1926   1.262       .  A
C1916      C1917   1.407       .  A
C1916      N1921   1.428       .  S
C1917      C1918   1.406       .  A
C1917      H1922   1.085       .  S
C1918      C2518   1.493       .  S
C1918      C4159   1.416       .  A
C1919      C4158   1.416       .  A
C1919      C4160   1.402       .  A
C1919      N1923   1.429       .  S
C1920      C4159   1.404       .  A
C1920      H1924   1.085       .  S
N1921      O1931   1.262       .  A
N1921      O1932   1.262       .  A
N1923      O1929   1.262       .  A
N1923      O1930   1.262       .  A
C1933      C1934   1.408   1_455  A
C1933      C1938   1.409       .  A
C1933      H1943   1.084       .  S
C1934      C4179   1.490       .  S
C1934      C4175   1.408       .  A
C1935      C4174   1.406       .  A
C1935      C4176   1.393       .  A
C1935      N1940   1.430       .  S
C1936      C1937   1.408       .  A
C1936      C4175   1.393   1_455  A
C1936      H1941   1.084   1_455  S
C1937      C1938   1.414       .  A
C1938      N1942   1.428       .  S
C1939      C4174   1.487       .  S
C1939      C1944   1.411       .  A
C1939      C1948   1.404       .  A
N1940      O1955   1.262       .  A
N1940      O1956   1.262       .  A
N1942      O1953   1.262       .  A
N1942      O1954   1.262       .  A
C1944      C1945   1.401       .  A
C1944      N4189   1.429       .  S
C1945      C1946   1.404       .  A
C1945      H1950   1.086       .  S
C1946      C1947   1.410       .  A
C1947      C1948   1.400       .  A
C1947      N1951   1.428       .  S
C1948      H1952   1.085       .  S
N1949      C4184   1.429       .  S
N1949      O1959   1.262   1_655  A
N1949      O1960   1.262       .  A
N1951      O1957   1.261       .  A
N1951      O1958   1.261       .  A
C1961      C1962   1.402       .  A
C1961      C1966   1.401       .  A
C1961      H1971   1.085       .  S
C1962      C1967   1.494       .  S
C1962      C1963   1.415       .  A
C1963      C1964   1.404       .  A
C1963      N1968   1.429       .  S
C1964      C1965   1.405       .  A
C1964      H1969   1.085       .  S
C1965      C1966   1.416       .  A
C1966      N1970   1.428       .  S
C1967      C1972   1.416       .  A
C1967      C1976   1.401       .  A
N1968      O1983   1.262       .  A
N1968      O1984   1.262       .  A
N1970      O1981   1.262       .  A
N1970      O1982   1.262       .  A
C1972      C1973   1.406       .  A
C1972      N1977   1.429       .  S
C1973      C1974   1.404       .  A
C1973      H1978   1.085       .  S
C1974      C1975   1.417       .  A
C1975      C1976   1.400       .  A
C1975      N1979   1.429       .  S
C1976      H1980   1.085       .  S
N1977      O1987   1.262       .  A
N1977      O1988   1.262       .  A
N1979      O1985   1.262       .  A
N1979      O1986   1.262       .  A
C1989      C1990   1.407       .  A
C1989      C1994   1.402       .  A
C1989      H1999   1.083   1_565  S
C1990      C1995   1.493   1_565  S
C1990      C1991   1.412       .  A
C1991      C1992   1.398       .  A
C1991      N1996   1.429       .  S
C1992      C1993   1.405       .  A
C1992      H1997   1.085       .  S
C1993      C1994   1.409       .  A
C1994      N1998   1.428       .  S
C1995      C2000   1.412       .  A
C1995      C2004   1.407       .  A
N1996      O2011   1.262       .  A
N1996      O2012   1.262       .  A
N1998      O2009   1.262       .  A
N1998      O2010   1.262       .  A
C2000      C2001   1.395       .  A
C2000      N2005   1.430       .  S
C2001      C2002   1.406       .  A
C2001      H2006   1.085       .  S
C2002      C2003   1.412       .  A
C2003      C2004   1.406       .  A
C2003      N2007   1.427       .  S
C2004      H2008   1.084   1_545  S
N2005      O2015   1.262       .  A
N2005      O2016   1.262       .  A
N2007      O2013   1.262       .  A
N2007      O2014   1.261       .  A
C2017      C2018   1.402       .  A
C2017      C2022   1.399       .  A
C2017      H2027   1.085       .  S
C2018      C2023   1.481       .  S
C2018      C2019   1.411       .  A
C2019      C2020   1.398       .  A
C2019      N2024   1.429       .  S
C2020      C2021   1.402       .  A
C2020      H2025   1.085       .  S
C2021      C2022   1.410       .  A
C2022      N2026   1.428       .  S
C2023      C2028   1.407       .  A
C2023      C2032   1.406       .  A
N2024      O2039   1.262       .  A
N2024      O2040   1.262       .  A
N2026      O2037   1.261       .  A
N2026      O2038   1.262       .  A
C2028      C2029   1.392       .  A
C2028      N2033   1.429       .  S
C2029      C2030   1.405       .  A
C2029      H2034   1.087       .  S
C2030      C2031   1.410       .  A
C2031      C2032   1.403       .  A
C2031      N2035   1.428       .  S
C2032      H2036   1.086       .  S
N2033      O2043   1.262       .  A
N2033      O2044   1.262       .  A
N2035      O2041   1.262       .  A
N2035      O2042   1.262       .  A
C2045      C2046   1.403       .  A
C2045      C2050   1.402       .  A
C2045      H2055   1.085       .  S
C2046      C2051   1.498       .  S
C2046      C2047   1.416       .  A
C2047      C2048   1.408       .  A
C2047      N2052   1.428       .  S
C2048      C2049   1.403       .  A
C2048      H2053   1.086       .  S
C2049      C2050   1.414       .  A
C2050      N2054   1.429       .  S
C2051      C2056   1.418       .  A
C2051      C2060   1.404       .  A
N2052      O2067   1.262       .  A
N2052      O2068   1.262       .  A
N2054      O2065   1.262       .  A
N2054      O2066   1.262       .  A
C2056      C2057   1.406       .  A
C2056      N2061   1.429       .  S
C2057      C2058   1.401       .  A
C2057      H2062   1.086       .  S
C2058      C2059   1.413       .  A
C2059      C2060   1.404       .  A
C2059      N2063   1.429       .  S
C2060      H2064   1.085       .  S
N2061      O2071   1.262       .  A
N2061      O2072   1.262       .  A
N2063      O2069   1.262       .  A
N2063      O2070   1.262       .  A
C2073      C2074   1.398       .  A
C2073      C2078   1.400       .  A
C2073      H2083   1.086       .  S
C2074      C2079   1.487       .  S
C2074      C2075   1.413       .  A
C2075      C2076   1.401       .  A
C2075      N2080   1.428       .  S
C2076      C2077   1.403       .  A
C2076      H2081   1.086       .  S
C2077      C2078   1.422       .  A
C2078      N2082   1.429       .  S
C2079      C2084   1.413       .  A
C2079      C2088   1.401       .  A
N2080      O2095   1.262       .  A
N2080      O2096   1.262       .  A
N2082      O2093   1.262       .  A
N2082      O2094   1.262       .  A
C2084      C2085   1.404       .  A
C2084      N2089   1.428       .  S
C2085      C2086   1.402       .  A
C2085      H2090   1.085       .  S
C2086      C2087   1.413       .  A
C2087      C2088   1.400       .  A
C2087      N2091   1.429       .  S
C2088      H2092   1.085       .  S
N2089      O2099   1.262       .  A
N2089      O2100   1.262       .  A
N2091      O2097   1.262       .  A
N2091      O2098   1.262       .  A
C2101      C2102   1.404       .  A
C2101      C2106   1.407       .  A
C2101      H2111   1.086       .  S
C2102      C2107   1.504       .  S
C2102      C2103   1.415       .  A
C2103      C2104   1.409       .  A
C2103      N2108   1.428       .  S
C2104      C2105   1.406       .  A
C2104      H2109   1.086       .  S
C2105      C2106   1.418       .  A
C2106      N2110   1.428       .  S
C2107      C2112   1.412       .  A
C2107      C2116   1.407       .  A
N2108      O2123   1.262       .  A
N2108      O2124   1.261       .  A
N2110      O2121   1.262       .  A
N2110      O2122   1.262       .  A
C2112      C2113   1.402       .  A
C2112      N2117   1.428       .  S
C2113      C2114   1.407       .  A
C2113      H2118   1.086       .  S
C2114      C2115   1.419       .  A
C2115      C2116   1.412       .  A
C2115      N2119   1.428       .  S
C2116      H2120   1.086       .  S
N2117      O2127   1.262       .  A
N2117      O2128   1.262       .  A
N2119      O2125   1.262       .  A
N2119      O2126   1.262       .  A
C2129      C2130   1.401       .  A
C2129      C4374   1.398       .  A
C2129      H4379   1.085       .  S
C2130      C2135   1.493       .  S
C2130      C2131   1.415       .  A
C2131      C2132   1.403       .  A
C2131      N2136   1.429       .  S
C2132      C2133   1.405       .  A
C2132      H2137   1.085       .  S
C2133      C4374   1.418       .  A
C2134      C4369   1.398       .  A
C2134      C4373   1.418       .  A
C2134      N2138   1.429       .  S
C2135      C2140   1.416       .  A
C2135      C2144   1.402       .  A
N2136      O2151   1.262       .  A
N2136      O2152   1.262       .  A
N2138      O2149   1.261       .  A
N2138      O2150   1.262       .  A
H2139      C4369   1.085       .  S
C2140      C2141   1.403       .  A
C2140      N2145   1.429   1_455  S
C2141      C2142   1.404       .  A
C2141      H2146   1.085       .  S
C2142      C2143   1.417       .  A
C2143      C2144   1.400       .  A
C2143      N2147   1.429       .  S
C2144      H2148   1.084       .  S
N2145      O2155   1.262       .  A
N2145      O2156   1.262       .  A
N2147      O2153   1.262       .  A
N2147      O2154   1.262       .  A
C2157      C2162   1.410       .  A
C2157      C4398   1.409   1_455  A
C2157      H2167   1.085   1_565  S
C2158      C2163   1.493   1_565  S
C2158      C2159   1.409       .  A
C2158      C4397   1.409       .  A
C2159      C4400   1.395       .  A
C2159      N2164   1.429       .  S
C2160      C2161   1.406       .  A
C2160      C4399   1.395   1_455  A
C2160      H2165   1.085       .  S
C2161      C2162   1.412       .  A
C2162      N2166   1.428       .  S
C2163      C2168   1.410       .  A
C2163      C2172   1.407       .  A
N2164      O2179   1.262       .  A
N2164      O2180   1.262       .  A
N2166      O2177   1.262       .  A
N2166      O2178   1.262       .  A
C2168      C2169   1.401       .  A
C2168      N2173   1.429       .  S
C2169      C2170   1.408       .  A
C2169      H2174   1.085       .  S
C2170      C2171   1.412       .  A
C2171      C2172   1.405       .  A
C2171      N2175   1.428       .  S
C2172      H2176   1.085   1_545  S
N2173      O2183   1.262       .  A
N2173      O4424   1.262       .  A
N2175      O2181   1.262       .  A
N2175      O2182   1.262       .  A
O2184      N4413   1.262       .  A
C2185      C2186   1.403       .  A
C2185      C2190   1.405       .  A
C2185      H2195   1.086       .  S
C2186      C2191   1.485       .  S
C2186      C2187   1.408       .  A
C2187      C2188   1.400       .  A
C2187      N2192   1.428       .  S
C2188      C2189   1.404       .  A
C2188      H2193   1.086       .  S
C2189      C2190   1.415       .  A
C2190      N2194   1.429       .  S
C2191      C2196   1.410       .  A
C2191      C2200   1.398       .  A
N2192      O2207   1.262       .  A
N2192      O2208   1.262       .  A
N2194      O2205   1.262       .  A
N2194      O2206   1.262       .  A
C2196      C2197   1.405       .  A
C2196      N2201   1.428       .  S
C2197      C2198   1.408       .  A
C2197      H2202   1.086       .  S
C2198      C2199   1.420       .  A
C2199      C2200   1.401       .  A
C2199      N2203   1.428       .  S
C2200      H2204   1.087       .  S
N2201      O2211   1.262       .  A
N2201      O2212   1.262       .  A
N2203      O2209   1.262       .  A
N2203      O2210   1.262       .  A
C2213      C2214   1.404       .  A
C2213      C2218   1.404       .  A
C2213      H2223   1.085       .  S
C2214      C2219   1.475       .  S
C2214      C2215   1.404       .  A
C2215      C2216   1.394       .  A
C2215      N2220   1.429       .  S
C2216      C2217   1.405       .  A
C2216      H2221   1.085       .  S
C2217      C2218   1.411       .  A
C2218      N2222   1.428       .  S
C2219      C2224   1.400       .  A
C2219      C2228   1.406       .  A
N2220      O2235   1.262       .  A
N2220      O2236   1.262       .  A
N2222      O2233   1.262       .  A
N2222      O2234   1.262       .  A
C2224      C2225   1.389       .  A
C2224      N2229   1.429       .  S
C2225      C2226   1.410       .  A
C2225      H2230   1.084       .  S
C2226      C2227   1.412       .  A
C2227      C2228   1.406       .  A
C2227      N2231   1.428       .  S
C2228      H2232   1.085       .  S
N2229      O2239   1.262       .  A
N2229      O2240   1.262       .  A
N2231      O2237   1.262       .  A
N2231      O2238   1.262       .  A
O2241      V2249   1.918       .  S
O2241      C2251   1.268       .  A
O2242      V2249   1.911       .  S
O2242      C2252   1.269       .  A
O2243      V2249   1.881       .  S
O2243      C2253   1.261       .  A
O2244      V2249   1.870       .  S
O2244      C2254   1.258       .  A
O2245      V2250   1.928       .  S
O2245      C2254   1.271       .  A
O2246      V2250   1.931       .  S
O2246      C2253   1.271       .  A
O2247      V2250   1.890       .  S
O2247      C2252   1.261       .  A
O2248      V2250   1.887       .  S
O2248      C2251   1.262       .  A
V2249      V2250   2.081       .  T
C2251      C4429   1.484       .  S
C2252      C4382   1.489       .  S
C2253      C4401   1.489       .  S
C2254      C4466   1.485       .  S
O2255      V2263   1.919       .  S
O2255      C2265   1.272       .  A
O2256      V2263   1.919       .  S
O2256      C2266   1.270       .  A
O2257      V2263   1.886       .  S
O2257      C2267   1.259       .  A
O2258      V2263   1.873       .  S
O2258      C2268   1.259       .  A
O2259      V2264   1.929       .  S
O2259      C2268   1.271       .  A
O2260      V2264   1.921       .  S
O2260      C2267   1.273       .  A
O2261      V2264   1.889       .  S
O2261      C2266   1.260       .  A
O2262      V2264   1.904       .  S
O2262      C2265   1.264       .  A
V2263      V2264   2.083       .  T
C2265      C4345   1.501       .  S
C2266      C4289   1.483       .  S
C2267      C4317   1.493       .  S
C2268      C4457   1.483       .  S
O2269      V2277   1.914       .  S
O2269      C2279   1.270       .  A
O2270      V2277   1.915       .  S
O2270      C2280   1.270       .  A
O2271      V2277   1.883       .  S
O2271      C2281   1.261       .  A
O2272      V2277   1.880       .  S
O2272      C2282   1.259       .  A
O2273      V2278   1.913       .  S
O2273      C2282   1.268       .  A
O2274      V2278   1.915       .  S
O2274      C2281   1.268       .  A
O2275      V2278   1.893       .  S
O2275      C2280   1.262       .  A
O2276      V2278   1.897       .  S
O2276      C2279   1.263       .  A
V2277      V2278   2.082       .  T
C2279      C4438   1.494       .  S
C2280      C4205   1.490       .  S
C2281      C4233   1.480       .  S
C2282      C4261   1.469       .  S
O2283      V2291   1.921       .  S
O2283      C2293   1.269       .  A
O2284      V2291   1.915       .  S
O2284      C2294   1.270       .  A
O2285      V2291   1.873       .  S
O2285      C2295   1.260       .  A
O2286      V2291   1.867       .  S
O2286      C2296   1.259       .  A
O2287      V2292   1.924       .  S
O2287      C2296   1.270       .  A
O2288      V2292   1.929       .  S
O2288      C2295   1.271       .  A
O2289      V2292   1.903       .  S
O2289      C2294   1.264       .  A
O2290      V2292   1.900       .  S
O2290      C2293   1.267       .  A
V2291      V2292   2.077       .  T
C2293      C4354   1.498       .  S
C2294      C4149   1.492       .  S
C2295      C4177   1.492       .  S
C2296      C4270   1.479       .  S
O2297      V2305   1.917       .  S
O2297      C2307   1.271       .  A
O2298      V2305   1.919       .  S
O2298      C2308   1.268       .  A
O2299      V2305   1.900       .  S
O2299      C2309   1.264       .  A
O2300      V2305   1.899       .  S
O2300      C2310   1.263       .  A
O2301      V2306   1.903       .  S
O2301      C2310   1.266       .  A
O2302      V2306   1.907       .  S
O2302      C2309   1.266       .  A
O2303      V2306   1.884       .  S
O2303      C2308   1.263       .  A
O2304      V2306   1.900       .  S
O2304      C2307   1.263       .  A
V2305      V2306   2.081       .  T
C2307      C4093   1.498       .  S
C2308      C4037   1.488       .  S
C2309      C4065   1.479       .  S
C2310      C4130   1.478       .  S
O2311      V2319   1.919       .  S
O2311      C2321   1.271       .  A
O2312      V2319   1.925       .  S
O2312      C2322   1.270       .  A
O2313      V2319   1.891       .  S
O2313      C2323   1.262       .  A
O2314      V2319   1.883       .  S
O2314      C2324   1.259       .  A
O2315      V2320   1.913       .  S
O2315      C2324   1.268       .  A
O2316      V2320   1.922       .  S
O2316      C2323   1.271       .  A
O2317      V2320   1.885       .  S
O2317      C2322   1.262       .  A
O2318      V2320   1.896       .  S
O2318      C2321   1.262       .  A
V2319      V2320   2.082       .  T
C2321      C4009   1.497       .  S
C2322      C3953   1.491       .  S
C2323      C3981   1.493       .  S
C2324      C4121   1.472       .  S
O2325      V2333   1.914       .  S
O2325      C2335   1.267       .  A
O2326      V2333   1.909       .  S
O2326      C2336   1.269       .  A
O2327      V2333   1.886       .  S
O2327      C2337   1.262       .  A
O2328      V2333   1.880       .  S
O2328      C2338   1.260       .  A
O2329      V2334   1.913       .  S
O2329      C2338   1.268       .  A
O2330      V2334   1.914       .  S
O2330      C2337   1.268       .  A
O2331      V2334   1.886       .  S
O2331      C2336   1.260       .  A
O2332      V2334   1.890       .  S
O2332      C2335   1.262       .  A
V2333      V2334   2.086       .  T
C2335      C4102   1.478       .  S
C2336      C3869   1.485   1_556  S
C2337      C3897   1.488       .  S
C2338      C3934   1.472       .  S
O2339      V2347   1.922       .  S
O2339      C2349   1.270       .  A
O2340      V2347   1.923   1_554  S
O2340      C2350   1.270       .  A
O2341      V2347   1.890       .  S
O2341      C2351   1.264       .  A
O2342      V2347   1.871       .  S
O2342      C2352   1.260       .  A
O2343      V2348   1.916       .  S
O2343      C2352   1.268       .  A
O2344      V2348   1.921       .  S
O2344      C2351   1.269       .  A
O2345      V2348   1.886   1_554  S
O2345      C2350   1.263       .  A
O2346      V2348   1.889       .  S
O2346      C2349   1.262       .  A
V2347      V2348   2.082       .  T
C2349      C4018   1.486       .  S
C2350      C3813   1.494       .  S
C2351      C3850   1.494       .  S
C2352      C3925   1.479       .  S
O2353      V2361   1.921       .  S
O2353      C2363   1.269       .  A
O2354      V2361   1.921       .  S
O2354      C2364   1.269       .  A
O2355      V2361   1.886       .  S
O2355      C2365   1.260       .  A
O2356      V2361   1.895       .  S
O2356      C2366   1.265       .  A
O2357      V2362   1.918       .  S
O2357      C2366   1.268       .  A
O2358      V2362   1.912       .  S
O2358      C2365   1.266       .  A
O2359      V2362   1.890       .  S
O2359      C2364   1.264       .  A
O2360      V2362   1.885       .  S
O2360      C2363   1.263       .  A
V2361      V2362   2.083       .  T
C2363      C3766   1.492       .  S
C2364      C3701   1.495       .  S
C2365      C3794   1.467       .  S
C2366      C3729   1.493       .  S
O2367      V2375   1.922       .  S
O2367      C2377   1.273       .  A
O2368      V2375   1.930       .  S
O2368      C2378   1.271       .  A
O2369      V2375   1.875       .  S
O2369      C2379   1.259       .  A
O2370      V2375   1.883       .  S
O2370      C2380   1.261       .  A
O2371      V2376   1.925       .  S
O2371      C2380   1.271       .  A
O2372      V2376   1.923       .  S
O2372      C2379   1.270       .  A
O2373      V2376   1.878       .  S
O2373      C2378   1.262       .  A
O2374      V2376   1.896       .  S
O2374      C2377   1.262       .  A
V2375      V2376   2.083       .  T
C2377      C3673   1.501       .  S
C2378      C3645   1.493       .  S
C2379      C3785   1.484       .  S
C2380      C4410   1.490       .  S
O2381      V2389   1.923       .  S
O2381      C2391   1.272       .  A
O2382      V2389   1.927       .  S
O2382      C2392   1.270       .  A
O2383      V2389   1.882       .  S
O2383      C2393   1.261       .  A
O2384      V2389   1.885       .  S
O2384      C2394   1.261       .  A
O2385      V2390   1.924       .  S
O2385      C2394   1.270       .  A
O2386      V2390   1.924       .  S
O2386      C2393   1.270       .  A
O2387      V2390   1.879       .  S
O2387      C2392   1.261       .  A
O2388      V2390   1.894       .  S
O2388      C2391   1.262       .  A
V2389      V2390   2.080       .  T
C2391      C3682   1.500       .  S
C2392      C3561   1.491       .  S
C2393      C3617   1.490       .  S
C2394      C3589   1.482       .  S
O2395      V2403   1.919       .  S
O2395      C2405   1.269       .  A
O2396      V2403   1.923       .  S
O2396      C2406   1.271       .  A
O2397      V2403   1.886       .  S
O2397      C2407   1.261       .  A
O2398      V2403   1.897       .  S
O2398      C2408   1.263       .  A
O2399      V2404   1.911       .  S
O2399      C2408   1.268       .  A
O2400      V2404   1.911       .  S
O2400      C2407   1.267       .  A
O2401      V2404   1.884       .  S
O2401      C2406   1.260       .  A
O2402      V2404   1.887       .  S
O2402      C2405   1.262       .  A
V2403      V2404   2.085       .  T
C2405      C3757   1.492       .  S
C2406      C3533   1.486       .  S
C2407      C3626   1.477       .  S
C2408      C3990   1.487       .  S
O2409      V2417   1.915       .  S
O2409      C2419   1.270       .  A
O2410      V2417   1.921       .  S
O2410      C2420   1.272       .  A
O2411      V2417   1.880       .  S
O2411      C2421   1.258       .  A
O2412      V2417   1.881       .  S
O2412      C2422   1.260       .  A
O2413      V2418   1.920       .  S
O2413      C2422   1.269       .  A
O2414      V2418   1.914       .  S
O2414      C2421   1.269       .  A
O2415      V2418   1.890       .  S
O2415      C2420   1.261       .  A
O2416      V2418   1.895       .  S
O2416      C2419   1.262       .  A
V2417      V2418   2.084       .  T
C2419      C3477   1.490   1_556  S
C2420      C3458   1.496       .  S
C2421      C3505   1.472       .  S
C2422      C3906   1.479       .  S
O2423      V2431   1.911       .  S
O2423      C2433   1.270       .  A
O2424      V2431   1.918       .  S
O2424      C2434   1.268       .  A
O2425      V2431   1.872       .  S
O2425      C2435   1.260       .  A
O2426      V2431   1.879       .  S
O2426      C2436   1.260       .  A
O2427      V2432   1.920       .  S
O2427      C2436   1.269       .  A
O2428      V2432   1.920       .  S
O2428      C2435   1.269       .  A
O2429      V2432   1.881       .  S
O2429      C2434   1.262       .  A
O2430      V2432   1.897       .  S
O2430      C2433   1.262       .  A
V2431      V2432   2.085       .  T
C2433      C3421   1.493   1_556  S
C2434      C3365   1.483       .  S
C2435      C3514   1.481       .  S
C2436      C3402   1.478       .  S
O2437      V2445   1.912       .  S
O2437      C2447   1.269       .  A
O2438      V2445   1.922       .  S
O2438      C2448   1.271       .  A
O2439      V2445   1.884       .  S
O2439      C2449   1.259       .  A
O2440      V2445   1.886       .  S
O2440      C2450   1.260       .  A
O2441      V2446   1.904       .  S
O2441      C2450   1.267       .  A
O2442      V2446   1.908       .  S
O2442      C2449   1.266       .  A
O2443      V2446   1.894       .  S
O2443      C2448   1.262       .  A
O2444      V2446   1.891       .  S
O2444      C2447   1.261       .  A
V2445      V2446   2.086       .  T
C2447      C3486   1.484       .  S
C2448      C3290   1.495       .  S
C2449      C3337   1.466       .  S
C2450      C3309   1.475       .  S
O2451      V2459   1.908       .  S
O2451      C2461   1.269       .  A
O2452      V2459   1.910       .  S
O2452      C2462   1.267       .  A
O2453      V2459   1.879       .  S
O2453      C2463   1.261       .  A
O2454      V2459   1.887       .  S
O2454      C2464   1.261       .  A
O2455      V2460   1.918       .  S
O2455      C2464   1.269       .  A
O2456      V2460   1.910       .  S
O2456      C2463   1.267       .  A
O2457      V2460   1.889       .  S
O2457      C2462   1.261       .  A
O2458      V2460   1.899       .  S
O2458      C2461   1.264       .  A
V2459      V2460   2.081       .  T
C2461      C3430   1.493       .  S
C2462      C3253   1.472       .  S
C2463      C3346   1.477       .  S
C2464      C4186   1.481       .  S
O2465      C2475   1.268   1_455  A
O2466      V2473   1.908       .  S
O2466      C2476   1.269       .  A
O2467      V2473   1.885       .  S
O2467      C2477   1.262       .  A
O2468      C2478   1.260       .  A
O2469      V2474   1.925       .  S
O2469      C2478   1.270       .  A
O2470      V2474   1.929   1_455  S
O2471      V2474   1.891       .  S
O2472      V2474   1.895       .  S
O2472      C2475   1.265       .  A
C2475      C3197   1.498       .  S
C2476      C4373   1.487       .  S
C2477      C3598   1.496       .  S
C2478      C3234   1.489       .  S
O2479      V2487   1.919       .  S
O2479      C2489   1.271       .  A
O2480      V2487   1.917       .  S
O2480      C2490   1.269       .  A
O2481      V2487   1.877       .  S
O2481      C2491   1.259       .  A
O2482      V2487   1.873       .  S
O2482      C2492   1.259       .  A
O2483      V2488   1.926       .  S
O2483      C2492   1.271       .  A
O2484      V2488   1.931       .  S
O2484      C2491   1.272       .  A
O2485      V2488   1.896       .  S
O2485      C2490   1.262       .  A
O2486      V2488   1.901       .  S
O2486      C2489   1.264       .  A
V2487      V2488   2.082       .  T
C2489      C3169   1.499       .  S
C2490      C4298   1.481       .  S
C2491      C3141   1.486       .  S
C2492      C3225   1.487       .  S
O2493      V2501   1.916   1_556  S
O2493      C2503   1.270       .  A
O2494      V2501   1.922       .  S
O2494      C2504   1.271       .  A
O2495      V2501   1.881       .  S
O2495      C2505   1.258       .  A
O2496      V2501   1.873       .  S
O2496      C2506   1.260       .  A
O2497      V2502   1.922       .  S
O2497      C2506   1.270       .  A
O2498      V2502   1.918       .  S
O2498      C2505   1.270       .  A
O2499      V2502   1.894       .  S
O2499      C2504   1.262       .  A
O2500      V2502   1.895       .  S
O2500      C2503   1.263   1_554  A
V2501      V2502   2.079       .  T
C2503      C3206   1.494       .  S
C2504      C4214   1.493       .  S
C2505      C3085   1.471       .  S
C2506      C3113   1.485       .  S
O2507      C2517   1.269       .  A
O2508      V2515   1.917       .  S
O2509      V2515   1.876       .  S
O2509      C2519   1.260       .  A
O2510      C2520   1.259       .  A
O2511      V2516   1.916       .  S
O2511      C2520   1.268       .  A
O2512      V2516   1.919       .  S
O2513      V2516   1.899   1_554  S
O2513      C2518   1.263   1_655  A
O2514      V2516   1.902       .  S
O2514      C2517   1.267       .  A
C2517      C3178   1.501       .  S
C2519      C3393   1.484       .  S
C2520      C3122   1.475       .  S
O2521      V2529   1.916       .  S
O2522      V2529   1.925       .  S
O2522      C2532   1.271       .  A
O2523      V2529   1.880       .  S
O2524      V2529   1.885       .  S
O2524      C2534   1.262       .  A
O2525      C2534   1.271       .  A
O2526      V2530   1.926       .  S
O2526      C2533   1.272       .  A
O2527      V2530   1.876       .  S
O2528      V2530   1.883       .  S
O2528      C2531   1.259       .  A
C2531      C3029   1.487       .  S
C2532      C3449   1.490       .  S
C2533      C3057   1.472       .  S
C2534      C4074   1.495       .  S
O2535      V2543   1.913       .  S
O2535      C2545   1.269       .  A
O2536      V2543   1.913       .  S
O2536      C2546   1.269       .  A
O2537      V2543   1.874       .  S
O2537      C2547   1.260       .  A
O2538      V2543   1.881       .  S
O2538      C2548   1.260       .  A
O2539      V2544   1.926       .  S
O2539      C2548   1.271       .  A
O2540      V2544   1.926       .  S
O2540      C2547   1.271       .  A
O2541      V2544   1.885       .  S
O2541      C2546   1.260       .  A
O2542      V2544   1.891       .  S
O2542      C2545   1.261       .  A
V2543      V2544   2.083       .  T
C2545      C3010   1.489       .  S
C2546      C3374   1.486       .  S
C2547      C3066   1.490       .  S
C2548      C3150   1.491       .  S
O2549      V2557   1.915       .  S
O2549      C2559   1.269       .  A
O2550      V2557   1.926       .  S
O2550      C2560   1.271       .  A
O2551      V2557   1.890       .  S
O2551      C2561   1.261       .  A
O2552      V2557   1.891       .  S
O2552      C2562   1.263       .  A
O2553      V2558   1.915       .  S
O2553      C2562   1.267       .  A
O2554      V2558   1.911       .  S
O2554      C2561   1.267       .  A
O2555      V2558   1.883       .  S
O2555      C2560   1.262       .  A
O2556      V2558   1.895       .  S
O2556      C2559   1.262       .  A
V2557      V2558   2.085       .  T
C2559      C3038   1.486       .  S
C2560      C3281   1.496       .  S
C2561      C2982   1.473       .  S
C2562      C2954   1.480       .  S
O2563      V2571   1.908       .  S
O2564      V2571   1.916       .  S
O2564      C2574   1.269       .  A
O2565      V2571   1.874       .  S
O2566      V2571   1.886       .  S
O2566      C2576   1.259       .  A
O2567      C2576   1.273       .  A
O2568      V2572   1.919       .  S
O2568      C2575   1.269       .  A
O2569      C2574   1.259       .  A
O2570      V2572   1.894       .  S
O2570      C2573   1.262       .  A
C2573      C3001   1.487       .  S
C2574      C3262   1.474       .  S
C2575      C2973   1.483       .  S
C2576      C4326   1.483       .  S
O2577      V2585   1.912       .  S
O2577      C2587   1.267       .  A
O2578      V2585   1.916       .  S
O2578      C2588   1.269       .  A
O2579      V2585   1.890       .  S
O2579      C2589   1.264       .  A
O2580      V2585   1.885       .  S
O2580      C2590   1.260       .  A
O2581      V2586   1.913       .  S
O2581      C2590   1.267       .  A
O2582      V2586   1.920       .  S
O2582      C2589   1.269       .  A
O2583      V2586   1.888       .  S
O2583      C2588   1.263       .  A
O2584      V2586   1.890       .  S
O2584      C2587   1.264       .  A
V2585      V2586   2.084       .  T
C2587      C2898   1.490       .  S
C2588      C4046   1.488       .  S
C2589      C2945   1.492       .  S
C2590      C2926   1.469       .  S
O2591      C2601   1.273   1_455  A
O2592      V2599   1.933       .  S
O2593      V2599   1.897       .  S
O2593      C2603   1.263       .  A
O2594      C2604   1.262   1_455  A
O2595      V2600   1.912       .  S
O2595      C2604   1.269       .  A
O2596      V2600   1.913   1_455  S
O2597      V2600   1.880       .  S
O2597      C2602   1.260   1_655  A
O2598      V2600   1.884       .  S
O2598      C2601   1.262       .  A
C2601      C2870   1.498       .  S
C2603      C3738   1.483       .  S
C2604      C2917   1.483       .  S
O2605      C2615   1.270   1_455  A
O2606      V2613   1.910       .  S
O2606      C2616   1.269       .  A
O2607      V2613   1.874       .  S
O2607      C2617   1.257       .  A
O2608      C2618   1.258   1_455  A
O2609      V2614   1.931       .  S
O2609      C2618   1.272       .  A
O2610      V2614   1.921   1_455  S
O2611      V2614   1.884       .  S
O2612      V2614   1.891       .  S
O2612      C2615   1.261       .  A
C2615      C2889   1.490       .  S
C2616      C3878   1.486       .  S
C2617      C3318   1.471       .  S
C2618      C2833   1.485       .  S
O2619      V2627   1.916       .  S
O2619      C2629   1.270       .  A
O2620      V2627   1.925       .  S
O2620      C2630   1.269       .  A
O2621      V2627   1.886       .  S
O2621      C2631   1.263       .  A
O2622      V2627   1.883       .  S
O2622      C2632   1.259       .  A
O2623      V2628   1.915       .  S
O2623      C2632   1.268       .  A
O2624      V2628   1.915       .  S
O2624      C2631   1.268       .  A
O2625      V2628   1.884       .  S
O2625      C2630   1.263       .  A
O2626      V2628   1.899       .  S
O2626      C2629   1.263       .  A
V2627      V2628   2.085       .  T
C2629      C2861   1.489       .  S
C2630      C3822   1.494       .  S
C2631      C2805   1.487       .  S
C2632      C2842   1.470       .  S
O2633      V2641   1.908       .  S
O2633      C2643   1.269       .  A
O2634      V2641   1.910       .  S
O2634      C2644   1.268   1_554  A
O2635      V2641   1.861       .  S
O2635      C2645   1.256       .  A
O2636      V2641   1.869       .  S
O2636      C2646   1.258       .  A
O2637      V2642   1.928       .  S
O2637      C2646   1.272       .  A
O2638      V2642   1.928       .  S
O2638      C2645   1.271       .  A
O2639      V2642   1.892   1_556  S
O2639      C2644   1.262       .  A
O2640      V2642   1.902       .  S
O2640      C2643   1.264       .  A
V2641      V2642   2.084       .  T
C2643      C2749   1.493       .  S
C2644      C3570   1.483       .  S
C2645      C2777   1.479       .  S
C2646      C3094   1.490       .  S
O2647      V2655   1.924       .  S
O2648      V2655   1.918   1_556  S
O2648      C2658   1.271       .  A
O2649      C2659   1.258       .  A
O2650      V2655   1.888       .  S
O2650      C2660   1.262       .  A
O2651      C2660   1.268       .  A
O2652      V2656   1.911       .  S
O2652      C2659   1.270       .  A
O2653      V2656   1.880   1_556  S
O2654      V2656   1.890       .  S
O2654      C2657   1.264       .  A
C2657      C2721   1.503       .  S
C2658      C3542   1.485       .  S
C2659      C2786   1.477       .  S
C2660      C3841   1.483       .  S
O2661      V2669   1.917       .  S
O2661      C2671   1.270       .  A
O2662      V2669   1.921       .  S
O2662      C2672   1.270       .  A
O2663      V2669   1.884       .  S
O2664      V2669   1.883       .  S
O2664      C2674   1.262       .  A
O2665      V2670   1.918       .  S
O2665      C2674   1.268       .  A
O2666      C2673   1.270       .  A
O2667      V2670   1.892       .  S
O2667      C2672   1.261       .  A
V2669      V2670   2.085       .  T
C2672      C3654   1.490       .  S
C2673      C2693   1.473       .  S
C2674      C4242   1.487       .  S
O2675      V2683   1.916       .  S
O2675      C2685   1.268       .  A
O2676      V2683   1.917       .  S
O2676      C2686   1.269       .  A
O2677      V2683   1.897       .  S
O2677      C2687   1.266       .  A
O2678      V2683   1.887       .  S
O2678      C2688   1.260       .  A
O2679      V2684   1.917       .  S
O2679      C2688   1.271       .  A
O2680      V2684   1.925       .  S
O2680      C2687   1.270       .  A
O2681      V2684   1.885       .  S
O2681      C2686   1.261       .  A
O2682      V2684   1.877       .  S
O2682      C2685   1.260       .  A
V2683      V2684   2.084       .  T
C2685      C2702   1.475       .  S
C2686      C2814   1.481       .  S
C2687      C2730   1.503       .  S
C2688      C3710   1.490       .  S
C2689      C2690   1.397       .  A
C2690      C2695   1.474       .  S
C2690      C2691   1.410       .  A
C2691      C2692   1.401       .  A
C2691      N2696   1.427       .  S
C2692      C2693   1.400       .  A
C2692      H2697   1.085       .  S
C2694      N2698   1.429   1_455  S
C2695      C2700   1.406       .  A
C2695      C2704   1.403       .  A
N2696      O2711   1.262       .  A
N2696      O2712   1.262       .  A
N2698      O2709   1.262       .  A
N2698      O2710   1.262       .  A
C2700      C2701   1.393       .  A
C2700      N2705   1.429       .  S
C2701      C2702   1.404       .  A
C2701      H2706   1.086       .  S
C2702      C2703   1.411       .  A
C2703      C2704   1.403       .  A
C2703      N2707   1.428       .  S
C2704      H2708   1.085       .  S
N2705      O2715   1.262       .  A
N2705      O2716   1.262       .  A
N2707      O2713   1.262       .  A
N2707      O2714   1.262       .  A
C2717      C2718   1.406       .  A
C2717      C2722   1.412       .  A
C2718      C2723   1.495       .  S
C2718      C2719   1.407       .  A
C2719      C2720   1.401       .  A
C2719      N2724   1.428       .  S
C2720      C2721   1.410       .  A
C2720      H2725   1.085       .  S
C2721      C2722   1.418       .  A
C2723      C2728   1.407       .  A
C2723      C2732   1.406       .  A
N2724      O2739   1.262       .  A
N2724      O2740   1.262       .  A
N2726      O2737   1.262       .  A
N2726      O2738   1.261       .  A
C2728      C2729   1.401       .  A
C2728      N2733   1.428       .  S
C2729      C2730   1.409       .  A
C2729      H2734   1.085       .  S
C2730      C2731   1.419       .  A
C2731      C2732   1.411       .  A
C2731      N2735   1.428       .  S
C2732      H2736   1.085       .  S
N2733      O2744   1.262       .  A
N2735      O2741   1.262       .  A
N2735      O2742   1.262       .  A
C2745      C2746   1.401       .  A
C2745      C2750   1.403       .  A
C2746      C2751   1.493       .  S
C2746      C2747   1.416       .  A
C2747      C2748   1.402       .  A
C2747      N2752   1.430       .  S
C2748      C2749   1.405       .  A
C2748      H2753   1.086       .  S
C2749      C2750   1.418       .  A
C2750      N2754   1.428       .  S
C2751      C2756   1.417       .  A
C2751      C2760   1.398       .  A
N2752      O2767   1.262       .  A
N2752      O2768   1.262       .  A
N2754      O2766   1.262       .  A
C2757      H2762   1.085       .  S
C2758      C2759   1.418       .  A
C2759      C2760   1.395       .  A
C2759      N2763   1.429       .  S
C2760      H2764   1.085       .  S
N2761      O2771   1.262   1_455  A
N2763      O2769   1.262       .  A
N2763      O2770   1.262       .  A
C2773      C2774   1.404       .  A
C2773      C2778   1.405       .  A
C2773      H2783   1.085   1_554  S
C2774      C2779   1.469       .  S
C2774      C2775   1.403       .  A
C2775      C2776   1.389       .  A
C2776      C2777   1.407       .  A
C2776      H2781   1.086       .  S
C2777      C2778   1.411       .  A
C2778      N2782   1.427   1_554  S
C2779      C2784   1.409       .  A
C2779      C2788   1.395       .  A
N2780      O2795   1.262       .  A
N2780      O2796   1.262       .  A
N2782      O2793   1.262       .  A
N2782      O2794   1.262       .  A
C2784      C2785   1.399       .  A
C2784      N2789   1.428   1_554  S
C2785      C2786   1.403       .  A
C2785      H2790   1.085   1_554  S
C2786      C2787   1.418       .  A
C2787      C2788   1.393       .  A
C2787      N2791   1.429       .  S
C2788      H2792   1.086       .  S
N2789      O2799   1.262       .  A
N2789      O2800   1.261       .  A
N2791      O2797   1.261       .  A
C2801      C2802   1.406       .  A
C2801      C2806   1.405       .  A
C2801      H2811   1.084       .  S
C2802      C2807   1.490       .  S
C2802      C2803   1.410       .  A
C2803      C2804   1.396       .  A
C2803      N2808   1.429       .  S
C2804      C2805   1.406       .  A
C2804      H2809   1.085       .  S
C2805      C2806   1.413       .  A
C2806      N2810   1.428       .  S
C2807      C2812   1.412       .  A
C2807      C2816   1.405       .  A
N2808      O2823   1.262       .  A
N2808      O2824   1.262       .  A
N2810      O2821   1.262       .  A
N2810      O2822   1.262       .  A
C2812      C2813   1.398       .  A
C2812      N2817   1.429       .  S
C2813      C2814   1.403       .  A
C2813      H2818   1.086       .  S
C2814      C2815   1.412       .  A
C2815      C2816   1.403       .  A
C2815      N2819   1.428       .  S
C2816      H2820   1.085       .  S
N2817      O2827   1.262       .  A
N2817      O2828   1.261       .  A
N2819      O2825   1.262       .  A
N2819      O2826   1.262       .  A
C2829      C2830   1.406       .  A
C2829      C2834   1.407       .  A
C2829      H2839   1.086       .  S
C2830      C2835   1.477       .  S
C2830      C2831   1.402       .  A
C2831      C2832   1.391       .  A
C2831      N2836   1.429       .  S
C2832      C2833   1.409       .  A
C2832      H2837   1.086   1_655  S
C2833      C2834   1.412       .  A
C2834      N2838   1.428       .  S
C2835      C2840   1.407       .  A
C2835      C2844   1.403       .  A
N2836      O2852   1.262   1_655  A
N2838      O2849   1.262       .  A
N2838      O2850   1.262       .  A
C2840      C2841   1.397       .  A
C2840      N2845   1.428       .  S
C2841      C2842   1.402       .  A
C2841      H2846   1.085       .  S
C2842      C2843   1.410       .  A
C2843      C2844   1.402       .  A
C2843      N2847   1.429       .  S
C2844      H2848   1.085       .  S
N2845      O2855   1.262       .  A
N2845      O2856   1.262       .  A
N2847      O2853   1.262       .  A
N2847      O2854   1.262       .  A
C2857      C2858   1.401       .  A
C2857      C2862   1.404       .  A
C2857      H2867   1.086       .  S
C2858      C2863   1.489       .  S
C2858      C2859   1.411       .  A
C2859      C2860   1.405       .  A
C2859      N2864   1.428       .  S
C2860      C2861   1.404       .  A
C2860      H2865   1.086       .  S
C2861      C2862   1.416       .  A
C2862      N2866   1.429       .  S
C2863      C2868   1.406       .  A
C2863      C2872   1.406       .  A
N2864      O2879   1.262       .  A
N2864      O2880   1.261       .  A
N2866      O2877   1.262       .  A
N2866      O2878   1.262       .  A
C2868      C2869   1.400       .  A
C2868      N2873   1.429       .  S
C2869      C2870   1.411       .  A
C2869      H2874   1.084       .  S
C2870      C2871   1.414       .  A
C2871      C2872   1.410       .  A
C2871      N2875   1.427   1_655  S
C2872      H2876   1.084       .  S
N2873      O2883   1.262       .  A
N2873      O2884   1.262       .  A
N2875      O2881   1.262       .  A
N2875      O2882   1.262       .  A
C2885      C2886   1.398       .  A
C2885      C2890   1.399       .  A
C2885      H2895   1.087       .  S
C2886      C2891   1.481       .  S
C2886      C2887   1.410       .  A
C2887      C2888   1.403       .  A
C2887      N2892   1.428       .  S
C2888      C2889   1.406       .  A
C2889      C2890   1.419       .  A
C2890      N2894   1.429       .  S
C2891      C2896   1.406       .  A
C2891      C2900   1.403       .  A
N2892      O2908   1.261   1_655  A
N2894      O2905   1.262       .  A
N2894      O2906   1.262       .  A
C2896      C2897   1.398       .  A
C2896      N2901   1.428       .  S
C2897      C2898   1.408       .  A
C2897      H2902   1.085       .  S
C2898      C2899   1.415       .  A
C2899      C2900   1.404       .  A
C2899      N2903   1.428       .  S
C2900      H2904   1.085       .  S
N2901      O2911   1.262       .  A
N2901      O2912   1.262   1_655  A
N2903      O2909   1.262       .  A
N2903      O2910   1.262       .  A
C2913      C2914   1.399       .  A
C2913      C2918   1.400       .  A
C2913      H2923   1.086       .  S
C2914      C2919   1.482       .  S
C2914      C2915   1.412       .  A
C2915      C2916   1.401       .  A
C2915      N2920   1.429       .  S
C2916      C2917   1.403       .  A
C2916      H2921   1.086       .  S
C2917      C2918   1.416       .  A
C2919      C2924   1.412       .  A
C2919      C2928   1.402       .  A
N2920      O2935   1.262       .  A
N2920      O2936   1.262       .  A
N2922      O2933   1.262       .  A
N2922      O2934   1.262       .  A
C2924      C2925   1.402       .  A
C2924      N2929   1.428       .  S
C2925      C2926   1.400       .  A
C2925      H2930   1.086       .  S
C2926      C2927   1.409       .  A
C2927      C2928   1.398       .  A
C2927      N2931   1.429       .  S
C2928      H2932   1.086       .  S
N2929      O2939   1.262       .  A
N2929      O2940   1.262       .  A
N2931      O2937   1.262       .  A
N2931      O2938   1.262       .  A
C2941      C2942   1.406       .  A
C2941      C2946   1.406       .  A
C2941      H2951   1.087       .  S
C2942      C2947   1.489       .  S
C2942      C2943   1.407       .  A
C2943      C2944   1.397       .  A
C2943      N2948   1.428       .  S
C2944      C2945   1.408       .  A
C2944      H2949   1.086       .  S
C2945      C2946   1.415       .  A
C2946      N2950   1.428       .  S
C2947      C2952   1.410       .  A
C2947      C2956   1.406       .  A
N2948      O2963   1.262       .  A
N2948      O2964   1.262       .  A
N2950      O2961   1.262       .  A
N2950      O2962   1.262       .  A
C2952      C2953   1.398       .  A
C2952      N2957   1.428       .  S
C2953      C2954   1.402       .  A
C2953      H2958   1.086       .  S
C2954      C2955   1.412       .  A
C2955      C2956   1.405       .  A
C2955      N2959   1.429       .  S
C2956      H2960   1.086       .  S
N2957      O2967   1.262       .  A
N2957      O2968   1.262       .  A
N2959      O2965   1.262       .  A
N2959      O2966   1.262       .  A
C2969      C2970   1.405       .  A
C2969      C2974   1.403       .  A
C2969      H2979   1.087       .  S
C2970      C2975   1.481       .  S
C2970      C2971   1.407       .  A
C2972      H2977   1.087       .  S
C2973      C2974   1.410       .  A
C2974      N2978   1.427       .  S
C2975      C2980   1.412       .  A
C2975      C2984   1.401       .  A
N2976      O2991   1.262       .  A
N2976      O2992   1.262       .  A
N2978      O2989   1.262       .  A
N2978      O2990   1.262       .  A
C2980      C2981   1.403       .  A
C2980      N2985   1.428       .  S
C2981      C2982   1.402       .  A
C2981      H2986   1.085       .  S
C2982      C2983   1.410       .  A
C2983      C2984   1.397       .  A
C2983      N2987   1.429       .  S
C2984      H2988   1.085       .  S
N2985      O2995   1.262       .  A
N2985      O2996   1.262       .  A
N2987      O2993   1.262       .  A
N2987      O2994   1.262       .  A
C2997      C2998   1.400       .  A
C2997      C3002   1.401       .  A
C2997      H3007   1.087       .  S
C2998      C3003   1.488       .  S
C2998      C2999   1.414       .  A
C3000      H3005   1.087   1_455  S
C3001      C3002   1.418       .  A
C3002      N3006   1.429       .  S
C3003      C3008   1.414       .  A
C3003      C3012   1.399       .  A
N3004      O3019   1.262   1_455  A
N3004      O3020   1.262   1_455  A
N3006      O3017   1.262       .  A
N3006      O3018   1.262       .  A
C3008      C3009   1.404       .  A
C3008      N3013   1.429       .  S
C3009      C3010   1.405       .  A
C3009      H3014   1.086       .  S
C3010      C3011   1.417       .  A
C3011      C3012   1.397       .  A
C3011      N3015   1.428       .  S
C3012      H3016   1.086       .  S
N3013      O3023   1.262       .  A
N3013      O3024   1.262       .  A
N3015      O3021   1.262       .  A
N3015      O3022   1.262       .  A
C3025      C3026   1.401       .  A
C3025      C3030   1.398       .  A
C3025      H3035   1.087       .  S
C3026      C3031   1.489       .  S
C3026      C3027   1.413       .  A
C3027      C3028   1.404       .  A
C3028      C3029   1.404       .  A
C3029      C3030   1.417       .  A
C3030      N3034   1.430       .  S
C3031      C3036   1.413       .  A
C3031      C3040   1.403       .  A
N3032      O3047   1.262   1_455  A
N3032      O3048   1.262       .  A
N3034      O3045   1.262       .  A
N3034      O3046   1.262       .  A
C3036      C3037   1.406       .  A
C3036      N3041   1.428       .  S
C3037      C3038   1.405       .  A
C3037      H3042   1.085       .  S
C3038      C3039   1.412       .  A
C3039      C3040   1.399       .  A
C3039      N3043   1.429       .  S
C3040      H3044   1.085       .  S
N3041      O3051   1.262       .  A
N3041      O3052   1.262       .  A
N3043      O3049   1.262       .  A
N3043      O3050   1.262       .  A
C3053      C3054   1.396       .  A
C3053      C3058   1.395       .  A
C3053      H3063   1.086       .  S
C3054      C3059   1.476       .  S
C3054      C3055   1.411       .  A
C3055      C3056   1.405       .  A
C3055      N3060   1.427       .  S
C3056      C3057   1.401       .  A
C3056      H3061   1.085       .  S
C3057      C3058   1.414       .  A
C3059      C3064   1.402       .  A
C3059      C3068   1.404       .  A
N3060      O3075   1.262       .  A
N3060      O3076   1.262       .  A
N3062      O3073   1.262   1_655  A
N3062      O3074   1.262       .  A
C3064      C3065   1.393       .  A
C3064      N3069   1.429       .  S
C3065      C3066   1.410       .  A
C3065      H3070   1.085       .  S
C3066      C3067   1.414       .  A
C3067      C3068   1.407       .  A
C3067      N3071   1.428       .  S
C3068      H3072   1.085       .  S
N3069      O3079   1.262       .  A
N3069      O3080   1.262       .  A
N3071      O3077   1.262       .  A
N3071      O3078   1.262       .  A
C3081      C3082   1.401       .  A
C3081      C3086   1.399       .  A
C3081      H3091   1.086   1_554  S
C3082      C3087   1.482       .  S
C3082      C3083   1.412       .  A
C3083      C3084   1.401       .  A
C3083      N3088   1.428       .  S
C3084      C3085   1.400       .  A
C3084      H3089   1.086       .  S
C3085      C3086   1.412       .  A
C3086      N3090   1.429   1_554  S
C3087      C3092   1.405   1_565  A
C3087      C3096   1.406       .  A
N3088      O3103   1.262       .  A
N3088      O3104   1.262       .  A
N3090      O3101   1.262       .  A
N3090      O3102   1.262       .  A
C3092      C3093   1.395       .  A
C3092      N3097   1.430       .  S
C3093      C3094   1.411       .  A
C3093      H3098   1.084       .  S
C3094      C3095   1.412       .  A
C3095      C3096   1.405   1_545  A
C3095      N3099   1.427       .  S
C3096      H3100   1.085       .  S
N3097      O3107   1.262       .  A
N3097      O3108   1.262       .  A
N3099      O3105   1.262       .  A
N3099      O3106   1.262   1_545  A
C3109      C3110   1.404       .  A
C3109      C3114   1.404       .  A
C3109      H3119   1.085       .  S
C3110      C3115   1.476   1_554  S
C3110      C3111   1.403       .  A
C3111      C3112   1.392       .  A
C3111      N3116   1.429       .  S
C3112      C3113   1.409       .  A
C3112      H3117   1.085       .  S
C3113      C3114   1.413       .  A
C3114      N3118   1.428       .  S
C3115      C3120   1.406       .  A
C3115      C3124   1.403   1_556  A
N3116      O3131   1.262       .  A
N3116      O3132   1.262   1_554  A
N3118      O3129   1.262       .  A
N3118      O3130   1.262       .  A
C3120      C3121   1.394       .  A
C3120      N3125   1.429       .  S
C3121      C3122   1.405       .  A
C3121      H3126   1.085       .  S
C3122      C3123   1.411   1_556  A
C3123      C3124   1.402       .  A
C3123      N3127   1.428       .  S
C3124      H3128   1.085       .  S
N3125      O3135   1.262       .  A
N3125      O3136   1.262       .  A
N3127      O3133   1.262       .  A
N3127      O3134   1.262       .  A
C3137      C3138   1.411       .  A
C3137      C3142   1.407       .  A
C3137      H3147   1.084       .  S
C3138      C3143   1.500       .  S
C3138      C3139   1.414       .  A
C3139      C3140   1.398       .  A
C3139      N3144   1.430       .  S
C3140      C3141   1.405       .  A
C3140      H3145   1.086       .  S
C3141      C3142   1.408       .  A
C3142      N3146   1.427       .  S
C3143      C3148   1.414       .  A
C3143      C3152   1.409       .  A
N3144      O3159   1.262       .  A
N3144      O3160   1.262       .  A
N3146      O3157   1.262       .  A
N3146      O3158   1.262       .  A
C3148      C3149   1.399       .  A
C3148      N3153   1.430       .  S
C3149      C3150   1.407       .  A
C3149      H3154   1.085       .  S
C3150      C3151   1.411       .  A
C3151      C3152   1.405       .  A
C3151      N3155   1.428       .  S
C3152      H3156   1.084       .  S
N3153      O3163   1.262       .  A
N3153      O3164   1.262       .  A
N3155      O3161   1.262       .  A
N3155      O3162   1.262       .  A
C3165      C3166   1.402       .  A
C3165      C3170   1.405       .  A
C3165      H3175   1.086       .  S
C3166      C3171   1.498       .  S
C3166      C3167   1.414       .  A
C3167      C3168   1.407       .  A
C3167      N3172   1.428       .  S
C3168      C3169   1.406       .  A
C3168      H3173   1.086       .  S
C3169      C3170   1.419       .  A
C3170      N3174   1.429       .  S
C3171      C3176   1.410       .  A
C3171      C3180   1.407       .  A
N3172      O3187   1.262       .  A
N3172      O3188   1.262       .  A
N3174      O3185   1.262       .  A
N3174      O3186   1.262       .  A
C3176      C3177   1.403       .  A
C3176      N3181   1.428       .  S
C3177      C3178   1.408       .  A
C3177      H3182   1.084       .  S
C3178      C3179   1.417       .  A
C3179      C3180   1.410       .  A
C3179      N3183   1.428   1_655  S
C3180      H3184   1.084       .  S
N3181      O3191   1.262       .  A
N3181      O3192   1.262       .  A
N3183      O3189   1.262       .  A
N3183      O3190   1.262       .  A
C3193      C3194   1.404       .  A
C3193      C3198   1.407       .  A
C3193      H3203   1.086       .  S
C3194      C3199   1.487       .  S
C3194      C3195   1.406       .  A
C3195      C3196   1.400       .  A
C3195      N3200   1.428       .  S
C3196      C3197   1.409       .  A
C3196      H3201   1.085       .  S
C3197      C3198   1.418       .  A
C3199      C3204   1.411       .  A
C3199      C3208   1.399       .  A
N3200      O3215   1.262       .  A
N3200      O3216   1.261       .  A
N3202      O3213   1.262       .  A
N3202      O3214   1.262       .  A
C3204      C3205   1.405       .  A
C3204      N3209   1.428       .  S
C3205      C3206   1.406       .  A
C3205      H3210   1.085       .  S
C3206      C3207   1.419       .  A
C3207      C3208   1.402       .  A
C3207      N3211   1.429       .  S
C3208      H3212   1.085       .  S
N3209      O3219   1.262       .  A
N3209      O3220   1.262       .  A
N3211      O3217   1.262       .  A
N3211      O3218   1.262       .  A
C3221      C3222   1.407       .  A
C3221      C3226   1.406       .  A
C3221      H3231   1.086       .  S
C3222      C3227   1.485       .  S
C3222      C3223   1.406       .  A
C3223      C3224   1.393       .  A
C3223      N3228   1.429       .  S
C3224      C3225   1.408       .  A
C3224      H3229   1.086       .  S
C3225      C3226   1.412       .  A
C3226      N3230   1.428       .  S
C3227      C3232   1.406       .  A
C3227      C3236   1.406       .  A
N3228      O3243   1.262       .  A
N3228      O3244   1.262       .  A
N3230      O3241   1.262       .  A
N3230      O3242   1.262       .  A
C3232      C3233   1.394       .  A
C3232      N3237   1.429       .  S
C3233      C3234   1.409       .  A
C3233      H3238   1.085       .  S
C3234      C3235   1.414       .  A
C3235      C3236   1.406       .  A
C3235      N3239   1.428       .  S
C3236      H3240   1.085       .  S
N3237      O3247   1.262       .  A
N3237      O3248   1.262       .  A
N3239      O3245   1.262       .  A
N3239      O3246   1.262       .  A
C3249      C3250   1.402       .  A
C3249      C3254   1.398       .  A
C3249      H3259   1.085       .  S
C3250      C3255   1.489       .  S
C3250      C3251   1.417       .  A
C3251      C3252   1.401       .  A
C3251      N3256   1.429       .  S
C3252      C3253   1.399       .  A
C3252      H3257   1.086       .  S
C3253      C3254   1.410       .  A
C3254      N3258   1.429       .  S
C3255      C3260   1.417       .  A
C3255      C3264   1.400       .  A
N3256      O3271   1.262   1_655  A
N3256      O3272   1.262       .  A
N3258      O3269   1.262       .  A
N3258      O3270   1.262       .  A
C3260      C3261   1.403       .  A
C3260      N3265   1.429       .  S
C3261      C3262   1.399       .  A
C3261      H3266   1.085       .  S
C3262      C3263   1.413       .  A
C3263      C3264   1.397       .  A
C3264      H3268   1.084       .  S
N3265      O3275   1.262       .  A
N3265      O3276   1.262       .  A
N3267      O3273   1.262       .  A
N3267      O3274   1.262       .  A
C3277      C3278   1.406       .  A
C3277      C3282   1.408       .  A
C3277      H3287   1.087       .  S
C3278      C3283   1.488       .  S
C3278      C3279   1.407       .  A
C3279      C3280   1.398       .  A
C3279      N3284   1.429       .  S
C3280      C3281   1.409       .  A
C3280      H3285   1.086       .  S
C3281      C3282   1.415       .  A
C3282      N3286   1.428       .  S
C3283      C3288   1.412       .  A
C3283      C3292   1.399       .  A
N3284      O3299   1.262       .  A
N3284      O3300   1.262       .  A
N3286      O3297   1.262       .  A
N3286      O3298   1.262       .  A
C3288      C3289   1.407       .  A
C3288      N3293   1.428       .  S
C3289      C3290   1.406       .  A
C3289      H3294   1.085       .  S
C3290      C3291   1.420       .  A
C3291      C3292   1.400       .  A
C3291      N3295   1.429       .  S
C3292      H3296   1.086       .  S
N3293      O3303   1.262       .  A
N3293      O3304   1.262       .  A
N3295      O3301   1.262       .  A
N3295      O3302   1.262       .  A
C3305      C3306   1.398       .  A
C3305      C3310   1.398       .  A
C3305      H3315   1.085       .  S
C3306      C3311   1.474       .  S
C3306      C3307   1.409       .  A
C3307      C3308   1.397       .  A
C3307      N3312   1.428       .  S
C3308      C3309   1.402       .  A
C3308      H3313   1.084       .  S
C3309      C3310   1.415       .  A
C3310      N3314   1.429       .  S
C3311      C3316   1.411       .  A
C3311      C3320   1.396       .  A
N3312      O3327   1.262       .  A
N3312      O3328   1.262       .  A
N3314      O3325   1.262       .  A
N3314      O3326   1.262       .  A
C3316      C3317   1.401       .  A
C3316      N3321   1.427       .  S
C3317      C3318   1.399       .  A
C3317      H3322   1.085       .  S
C3318      C3319   1.416       .  A
C3319      C3320   1.395       .  A
C3319      N3323   1.430       .  S
C3320      H3324   1.085       .  S
N3321      O3331   1.262       .  A
N3321      O3332   1.262       .  A
N3323      O3329   1.262       .  A
N3323      O3330   1.262       .  A
C3333      C3334   1.399       .  A
C3333      C3338   1.395       .  A
C3333      H3343   1.084       .  S
C3334      C3339   1.473       .  S
C3334      C3335   1.410       .  A
C3335      C3336   1.401       .  A
C3335      N3340   1.428       .  S
C3336      C3337   1.400       .  A
C3336      H3341   1.084       .  S
C3337      C3338   1.410       .  A
C3338      N3342   1.430       .  S
C3339      C3344   1.405       .  A
C3339      C3348   1.403       .  A
N3340      O3355   1.262       .  A
N3340      O3356   1.261       .  A
N3342      O3353   1.262       .  A
N3342      O3354   1.262       .  A
C3344      C3345   1.394       .  A
C3344      N3349   1.429       .  S
C3345      C3346   1.406       .  A
C3345      H3350   1.085       .  S
C3346      C3347   1.411       .  A
C3347      C3348   1.401       .  A
C3347      N3351   1.428       .  S
C3348      H3352   1.085       .  S
N3349      O3359   1.262       .  A
N3349      O3360   1.262       .  A
N3351      O3357   1.262       .  A
N3351      O3358   1.262       .  A
C3361      C3362   1.405       .  A
C3361      C3366   1.406       .  A
C3361      H3371   1.085       .  S
C3362      C3367   1.479       .  S
C3362      C3363   1.407       .  A
C3363      C3364   1.393       .  A
C3363      N3368   1.429       .  S
C3364      C3365   1.404       .  A
C3364      H3369   1.085       .  S
C3365      C3366   1.414       .  A
C3366      N3370   1.428       .  S
C3367      C3372   1.411       .  A
C3367      C3376   1.397       .  A
N3368      O3383   1.262       .  A
N3368      O3384   1.262       .  A
N3370      O3381   1.262       .  A
N3370      O3382   1.262       .  A
C3372      C3373   1.402       .  A
C3372      N3377   1.429       .  S
C3373      C3374   1.405       .  A
C3373      H3378   1.085       .  S
C3374      C3375   1.418       .  A
C3375      C3376   1.397       .  A
C3375      N3379   1.429       .  S
C3376      H3380   1.086       .  S
N3377      O3387   1.262       .  A
N3377      O3388   1.262       .  A
N3379      O3385   1.262       .  A
N3379      O3386   1.262       .  A
C3389      C3390   1.406       .  A
C3389      C3394   1.404       .  A
C3389      H3399   1.085       .  S
C3390      C3395   1.482       .  S
C3390      C3391   1.405       .  A
C3391      C3392   1.394       .  A
C3391      N3396   1.429       .  S
C3392      C3393   1.408       .  A
C3392      H3397   1.085       .  S
C3393      C3394   1.411       .  A
C3394      N3398   1.428       .  S
C3395      C3400   1.407       .  A
C3395      C3404   1.405       .  A
N3396      O3411   1.262       .  A
N3396      O3412   1.262       .  A
N3398      O3409   1.262       .  A
C3400      C3401   1.395       .  A
C3400      N3405   1.429   1_556  S
C3401      C3402   1.405       .  A
C3401      H3406   1.086       .  S
C3402      C3403   1.410       .  A
C3403      C3404   1.403       .  A
C3403      N3407   1.428       .  S
C3404      H3408   1.085       .  S
N3405      O3415   1.262       .  A
N3405      O3416   1.262       .  A
N3407      O3413   1.262       .  A
N3407      O3414   1.262       .  A
C3417      C3418   1.401       .  A
C3417      C3422   1.401       .  A
C3417      H3427   1.086       .  S
C3418      C3423   1.492       .  S
C3418      C3419   1.414       .  A
C3419      C3420   1.403       .  A
C3419      N3424   1.429       .  S
C3420      C3421   1.405       .  A
C3420      H3425   1.086       .  S
C3421      C3422   1.419       .  A
C3422      N3426   1.429       .  S
C3423      C3428   1.414       .  A
C3423      C3432   1.401       .  A
N3424      O3439   1.262       .  A
N3424      O3440   1.262       .  A
N3426      O3437   1.262   1_554  A
N3426      O3438   1.262       .  A
C3428      C3429   1.402       .  A
C3428      N3433   1.429       .  S
C3429      C3430   1.405       .  A
C3429      H3434   1.086       .  S
C3430      C3431   1.418       .  A
C3431      C3432   1.402       .  A
C3431      N3435   1.428       .  S
C3432      H3436   1.085       .  S
N3433      O3443   1.262       .  A
N3433      O3444   1.262       .  A
N3435      O3441   1.262       .  A
N3435      O3442   1.262       .  A
C3445      C3446   1.408       .  A
C3445      C3450   1.411       .  A
C3445      H3455   1.084       .  S
C3446      C3451   1.486       .  S
C3446      C3447   1.406       .  A
C3447      C3448   1.396       .  A
C3447      N3452   1.429       .  S
C3448      C3449   1.407       .  A
C3448      H3453   1.084       .  S
C3449      C3450   1.413       .  A
C3450      N3454   1.429       .  S
C3451      C3456   1.412       .  A
C3451      C3460   1.397       .  A
N3452      O3467   1.262       .  A
N3452      O3468   1.261       .  A
N3454      O3465   1.262       .  A
N3454      O3466   1.262       .  A
C3456      C3457   1.406       .  A
C3456      N3461   1.428       .  S
C3457      C3458   1.407       .  A
C3457      H3462   1.085       .  S
C3458      C3459   1.421       .  A
C3459      C3460   1.400       .  A
C3459      N3463   1.429       .  S
C3460      H3464   1.086       .  S
N3463      O3469   1.262       .  A
N3463      O3470   1.262       .  A
C3473      C3474   1.400       .  A
C3473      C3478   1.400       .  A
C3473      H3483   1.085       .  S
C3474      C3479   1.485       .  S
C3474      C3475   1.410       .  A
C3475      C3476   1.405       .  A
C3475      N3480   1.428       .  S
C3476      C3477   1.407       .  A
C3476      H3481   1.084       .  S
C3477      C3478   1.416       .  A
C3478      N3482   1.429       .  S
C3479      C3484   1.412       .  A
C3479      C3488   1.401       .  A
N3480      O3495   1.262       .  A
N3480      O3496   1.262       .  A
N3482      O3493   1.262   1_554  A
N3482      O3494   1.262       .  A
C3484      C3485   1.404       .  A
C3484      N3489   1.428       .  S
C3485      C3486   1.404       .  A
C3485      H3490   1.086       .  S
C3486      C3487   1.415       .  A
C3487      C3488   1.399       .  A
C3487      N3491   1.429       .  S
C3488      H3492   1.086       .  S
N3489      O3499   1.262       .  A
N3489      O3500   1.262       .  A
N3491      O3497   1.262       .  A
N3491      O3498   1.262       .  A
C3501      C3502   1.397       .  A
C3501      C3506   1.395       .  A
C3501      H3511   1.087       .  S
C3502      C3507   1.472       .  S
C3502      C3503   1.408       .  A
C3503      C3504   1.400       .  A
C3503      N3508   1.427       .  S
C3504      C3505   1.401       .  A
C3504      H3509   1.086       .  S
C3505      C3506   1.415       .  A
C3506      N3510   1.430       .  S
C3507      C3512   1.403       .  A
C3507      C3516   1.403       .  A
N3508      O3523   1.262       .  A
N3508      O3524   1.262       .  A
N3510      O3521   1.262   1_556  A
N3510      O3522   1.262       .  A
C3512      C3513   1.390       .  A
C3512      N3517   1.429       .  S
C3513      C3514   1.406       .  A
C3513      H3518   1.086       .  S
C3514      C3515   1.413       .  A
C3515      C3516   1.405       .  A
C3515      N3519   1.428       .  S
C3516      H3520   1.086       .  S
N3517      O3527   1.262       .  A
N3517      O3528   1.262       .  A
N3519      O3525   1.262       .  A
N3519      O3526   1.262       .  A
C3529      C3530   1.404       .  A
C3529      C3534   1.404       .  A
C3529      H3539   1.085       .  S
C3530      C3535   1.484       .  S
C3530      C3531   1.409       .  A
C3531      C3532   1.400       .  A
C3531      N3536   1.430       .  S
C3532      C3533   1.407       .  A
C3532      H3537   1.085       .  S
C3533      C3534   1.412       .  A
C3534      N3538   1.427       .  S
C3535      C3540   1.413       .  A
C3535      C3544   1.398       .  A
N3538      O3549   1.262       .  A
N3538      O3550   1.262       .  A
C3540      C3541   1.404       .  A
C3540      N3545   1.428       .  S
C3541      C3542   1.404       .  A
C3541      H3546   1.085       .  S
C3542      C3543   1.417       .  A
C3543      C3544   1.397       .  A
C3544      H3548   1.085       .  S
N3545      O3555   1.262       .  A
N3545      O3556   1.262       .  A
N3547      O3553   1.262       .  A
N3547      O3554   1.262       .  A
C3557      C3558   1.405       .  A
C3557      C3562   1.407       .  A
C3557      H3567   1.086       .  S
C3558      C3563   1.483       .  S
C3558      C3559   1.405       .  A
C3559      C3560   1.395       .  A
C3559      N3564   1.429       .  S
C3560      C3561   1.408       .  A
C3560      H3565   1.086       .  S
C3561      C3562   1.414       .  A
C3562      N3566   1.428       .  S
C3563      C3568   1.411       .  A
C3563      C3572   1.400       .  A
N3564      O3579   1.262       .  A
N3564      O3580   1.262       .  A
N3566      O3577   1.262       .  A
N3566      O3578   1.262       .  A
C3568      C3569   1.403       .  A
C3568      N3573   1.428       .  S
C3569      C3570   1.404       .  A
C3569      H3574   1.085       .  S
C3570      C3571   1.415       .  A
C3571      C3572   1.399       .  A
C3571      N3575   1.429       .  S
C3572      H3576   1.086       .  S
N3573      O3583   1.262       .  A
N3573      O3584   1.262       .  A
N3575      O3581   1.262       .  A
N3575      O3582   1.262       .  A
C3585      C3586   1.407   1_545  A
C3585      C3590   1.405       .  A
C3585      H3595   1.085   1_545  S
C3586      C3591   1.496       .  S
C3586      C3587   1.414   1_565  A
C3587      C3588   1.400       .  A
C3587      N3592   1.429       .  S
C3588      C3589   1.402       .  A
C3588      H3593   1.086       .  S
C3589      C3590   1.411       .  A
C3590      N3594   1.428       .  S
C3591      C3596   1.411       .  A
C3591      C3600   1.407       .  A
N3592      O3607   1.262       .  A
N3592      O3608   1.262   1_545  A
N3594      O3605   1.262       .  A
N3594      O3606   1.262       .  A
C3596      C3597   1.399       .  A
C3596      N3601   1.429       .  S
C3597      C3598   1.409       .  A
C3597      H3602   1.085       .  S
C3598      C3599   1.414       .  A
C3599      C3600   1.406       .  A
C3599      N3603   1.428       .  S
C3600      H3604   1.085   1_565  S
N3601      O3611   1.262       .  A
N3601      O3612   1.262       .  A
N3603      O3609   1.262       .  A
N3603      O3610   1.262       .  A
C3613      C3614   1.406       .  A
C3613      C3618   1.404       .  A
C3613      H3623   1.085       .  S
C3614      C3619   1.483       .  S
C3614      C3615   1.406       .  A
C3615      C3616   1.398       .  A
C3615      N3620   1.429       .  S
C3616      C3617   1.410       .  A
C3616      H3621   1.085       .  S
C3617      C3618   1.413       .  A
C3618      N3622   1.428       .  S
C3619      C3624   1.413       .  A
C3619      C3628   1.400       .  A
N3620      O3635   1.262       .  A
N3620      O3636   1.262       .  A
N3622      O3633   1.262       .  A
N3622      O3634   1.262       .  A
C3624      C3625   1.404       .  A
C3624      N3629   1.428       .  S
C3625      C3626   1.403       .  A
C3625      H3630   1.086       .  S
C3626      C3627   1.411       .  A
C3627      C3628   1.395       .  A
C3627      N3631   1.428       .  S
C3628      H3632   1.086       .  S
N3629      O3639   1.262       .  A
N3629      O3640   1.262       .  A
N3631      O3637   1.262       .  A
N3631      O3638   1.262       .  A
C3641      C3642   1.408       .  A
C3641      C3646   1.410       .  A
C3641      H3651   1.085       .  S
C3642      C3647   1.485       .  S
C3642      C3643   1.405       .  A
C3643      C3644   1.394       .  A
C3643      N3648   1.429       .  S
C3644      C3645   1.408       .  A
C3644      H3649   1.085       .  S
C3645      C3646   1.415       .  A
C3646      N3650   1.428       .  S
C3647      C3652   1.413       .  A
C3647      C3656   1.396       .  A
N3648      O3663   1.262       .  A
N3648      O3664   1.262       .  A
N3650      O3661   1.262       .  A
N3650      O3662   1.262       .  A
C3652      C3653   1.408       .  A
C3652      N3657   1.428       .  S
C3653      C3654   1.406       .  A
C3653      H3658   1.085       .  S
C3654      C3655   1.417       .  A
C3655      C3656   1.396       .  A
C3655      N3659   1.427       .  S
C3656      H3660   1.086       .  S
N3657      O3667   1.262       .  A
N3657      O3668   1.261       .  A
N3659      O3665   1.261       .  A
N3659      O3666   1.262   1_655  A
C3669      C3670   1.401       .  A
C3669      C3674   1.405       .  A
C3669      H3679   1.086       .  S
C3670      C3675   1.498       .  S
C3670      C3671   1.416       .  A
C3671      C3672   1.405       .  A
C3671      N3676   1.429       .  S
C3672      C3673   1.405       .  A
C3672      H3677   1.086       .  S
C3673      C3674   1.422       .  A
C3674      N3678   1.429       .  S
C3675      C3680   1.416       .  A
C3675      C3684   1.400       .  A
N3676      O3691   1.262       .  A
N3676      O3692   1.262       .  A
N3678      O3689   1.262       .  A
N3678      O3690   1.262       .  A
C3680      C3681   1.408       .  A
C3680      N3685   1.428       .  S
C3681      C3682   1.406       .  A
C3681      H3686   1.086       .  S
C3682      C3683   1.420       .  A
C3683      C3684   1.402       .  A
C3683      N3687   1.428       .  S
C3684      H3688   1.086       .  S
N3685      O3695   1.262       .  A
N3685      O3696   1.262       .  A
N3687      O3693   1.262       .  A
N3687      O3694   1.262       .  A
C3697      C3698   1.405       .  A
C3697      C3702   1.406       .  A
C3697      H3707   1.085       .  S
C3698      C3703   1.486       .  S
C3698      C3699   1.407       .  A
C3699      C3700   1.399       .  A
C3699      N3704   1.429       .  S
C3700      C3701   1.409       .  A
C3700      H3705   1.084       .  S
C3701      C3702   1.415       .  A
C3702      N3706   1.428       .  S
C3703      C3708   1.413       .  A
C3703      C3712   1.399       .  A
N3704      O3719   1.262       .  A
N3704      O3720   1.262       .  A
N3706      O3717   1.262       .  A
N3706      O3718   1.262       .  A
C3708      C3709   1.405       .  A
C3708      N3713   1.428       .  S
C3709      C3710   1.406       .  A
C3709      H3714   1.085       .  S
C3710      C3711   1.419       .  A
C3711      C3712   1.397       .  A
C3711      N3715   1.429       .  S
C3712      H3716   1.086       .  S
N3713      O3723   1.262       .  A
N3713      O3724   1.262       .  A
N3715      O3721   1.262       .  A
N3715      O3722   1.262       .  A
C3725      C3726   1.405       .  A
C3725      C3730   1.406       .  A
C3725      H3735   1.085       .  S
C3726      C3731   1.487       .  S
C3726      C3727   1.407       .  A
C3727      C3728   1.400       .  A
C3727      N3732   1.428       .  S
C3728      C3729   1.408       .  A
C3728      H3733   1.084       .  S
C3729      C3730   1.415       .  A
C3730      N3734   1.428       .  S
C3731      C3736   1.411       .  A
C3731      C3740   1.402       .  A
N3732      O3747   1.262       .  A
N3732      O3748   1.261       .  A
N3734      O3745   1.262       .  A
N3734      O3746   1.262       .  A
C3736      C3737   1.404       .  A
C3736      N3741   1.429       .  S
C3737      C3738   1.405       .  A
C3737      H3742   1.086       .  S
C3738      C3739   1.412       .  A
C3739      C3740   1.402       .  A
C3739      N3743   1.428       .  S
C3740      H3744   1.085       .  S
N3741      O3751   1.262       .  A
N3741      O3752   1.261       .  A
N3743      O3749   1.262       .  A
N3743      O3750   1.262       .  A
C3753      C3754   1.402       .  A
C3753      C3758   1.406       .  A
C3753      H3763   1.085       .  S
C3754      C3759   1.481       .  S
C3754      C3755   1.405       .  A
C3755      C3756   1.399       .  A
C3755      N3760   1.429       .  S
C3756      C3757   1.409       .  A
C3756      H3761   1.085       .  S
C3757      C3758   1.415       .  A
C3758      N3762   1.428       .  S
C3759      C3764   1.404       .  A
C3759      C3768   1.403       .  A
N3760      O3775   1.262       .  A
N3760      O3776   1.262       .  A
N3762      O3773   1.262       .  A
N3762      O3774   1.261       .  A
C3764      C3765   1.397       .  A
C3764      N3769   1.428       .  S
C3765      C3766   1.409       .  A
C3765      H3770   1.085       .  S
C3766      C3767   1.417       .  A
C3767      C3768   1.406       .  A
C3767      N3771   1.428       .  S
C3768      H3772   1.085       .  S
N3769      O3779   1.262       .  A
N3769      O3780   1.262       .  A
N3771      O3777   1.262       .  A
N3771      O3778   1.262       .  A
C3781      C3782   1.408       .  A
C3781      C3786   1.404       .  A
C3781      H3791   1.083       .  S
C3782      C3787   1.491       .  S
C3782      C3783   1.411       .  A
C3783      C3784   1.395       .  A
C3783      N3788   1.430       .  S
C3784      C3785   1.407       .  A
C3784      H3789   1.085       .  S
C3785      C3786   1.409       .  A
C3786      N3790   1.428       .  S
C3787      C3792   1.414       .  A
C3787      C3796   1.407       .  A
N3788      O3803   1.262       .  A
N3788      O3804   1.262       .  A
N3790      O3801   1.262       .  A
N3790      O3802   1.262       .  A
C3792      C3793   1.399       .  A
C3792      N3797   1.429       .  S
C3793      C3794   1.399       .  A
C3793      H3798   1.085       .  S
C3794      C3795   1.406       .  A
C3795      C3796   1.400       .  A
C3795      N3799   1.429       .  S
C3796      H3800   1.083       .  S
N3797      O3807   1.262       .  A
N3797      O3808   1.262       .  A
N3799      O3805   1.262       .  A
N3799      O3806   1.262       .  A
C3809      C3810   1.405       .  A
C3809      C3814   1.408       .  A
C3809      H3819   1.086       .  S
C3810      C3815   1.488       .  S
C3810      C3811   1.406       .  A
C3811      C3812   1.396       .  A
C3811      N3816   1.428       .  S
C3812      C3813   1.408       .  A
C3812      H3817   1.086       .  S
C3813      C3814   1.416       .  A
C3814      N3818   1.428       .  S
C3815      C3820   1.406       .  A
C3815      C3824   1.407       .  A
N3816      O3831   1.262       .  A
N3816      O3832   1.262       .  A
N3818      O3829   1.262       .  A
N3818      O3830   1.262       .  A
C3820      C3821   1.394       .  A
C3820      N3825   1.428       .  S
C3821      C3822   1.407       .  A
C3821      H3826   1.086       .  S
C3822      C3823   1.416       .  A
C3823      C3824   1.409       .  A
C3823      N3827   1.428       .  S
C3824      H3828   1.086       .  S
N3825      O3835   1.262       .  A
N3825      O3836   1.262       .  A
N3827      O3833   1.262       .  A
N3827      O3834   1.262       .  A
C3837      C3838   1.406       .  A
C3837      C3842   1.406       .  A
C3837      H3847   1.085       .  S
C3838      C3843   1.493       .  S
C3838      C3839   1.412   1_556  A
C3839      C3840   1.399       .  A
C3839      N3844   1.428       .  S
C3840      C3841   1.403       .  A
C3840      H3845   1.086       .  S
C3841      C3842   1.414   1_554  A
C3842      N3846   1.429       .  S
C3843      C3848   1.409       .  A
C3843      C3852   1.407       .  A
N3844      O3859   1.262       .  A
N3844      O3860   1.261       .  A
N3846      O3857   1.262       .  A
C3848      C3849   1.398       .  A
C3848      N3853   1.429       .  S
C3849      C3850   1.408       .  A
C3849      H3854   1.085       .  S
C3850      C3851   1.415       .  A
C3851      C3852   1.407       .  A
C3851      N3855   1.428       .  S
C3852      H3856   1.085       .  S
N3853      O3863   1.262       .  A
N3853      O3864   1.262       .  A
N3855      O3861   1.262       .  A
N3855      O3862   1.262   1_556  A
C3865      C3866   1.399       .  A
C3865      C3870   1.397       .  A
C3865      H3875   1.086       .  S
C3866      C3871   1.481       .  S
C3866      C3867   1.411       .  A
C3867      C3868   1.399       .  A
C3867      N3872   1.428       .  S
C3868      C3869   1.404       .  A
C3868      H3873   1.086       .  S
C3869      C3870   1.419       .  A
C3870      N3874   1.430       .  S
C3871      C3876   1.411       .  A
C3871      C3880   1.398       .  A
N3872      O3887   1.262       .  A
N3874      O3885   1.262       .  A
N3874      O3886   1.262       .  A
C3876      C3877   1.400       .  A
C3876      N3881   1.428       .  S
C3877      C3878   1.404       .  A
C3877      H3882   1.086       .  S
C3878      C3879   1.419       .  A
C3879      C3880   1.396       .  A
C3879      N3883   1.429       .  S
C3880      H3884   1.086       .  S
N3881      O3891   1.262       .  A
N3881      O3892   1.262       .  A
N3883      O3889   1.262       .  A
N3883      O3890   1.262       .  A
C3893      C3894   1.406       .  A
C3893      C3898   1.403       .  A
C3893      H3903   1.085       .  S
C3894      C3895   1.408       .  A
C3895      C3896   1.398       .  A
C3896      C3897   1.408       .  A
C3896      H3901   1.085       .  S
C3897      C3898   1.413       .  A
C3898      N3902   1.428       .  S
C3899      C3904   1.410       .  A
C3899      C3908   1.407       .  A
N3900      O3915   1.262       .  A
N3900      O3916   1.262       .  A
N3902      O3913   1.262       .  A
N3902      O3914   1.262       .  A
C3904      C3905   1.396       .  A
C3905      C3906   1.404       .  A
C3905      H3910   1.085       .  S
C3906      C3907   1.410       .  A
C3907      C3908   1.404       .  A
C3907      N3911   1.428       .  S
C3908      H3912   1.084       .  S
N3909      O3919   1.262       .  A
N3909      O3920   1.262   1_556  A
N3911      O3917   1.262       .  A
N3911      O3918   1.262       .  A
C3921      C3922   1.405       .  A
C3921      C3926   1.401       .  A
C3921      H3931   1.085       .  S
C3922      C3927   1.479       .  S
C3922      C3923   1.406       .  A
C3923      C3924   1.391       .  A
C3923      N3928   1.429       .  S
C3924      C3925   1.406       .  A
C3924      H3929   1.086       .  S
C3925      C3926   1.411       .  A
C3926      N3930   1.428       .  S
C3927      C3932   1.410       .  A
C3927      C3936   1.403       .  A
N3928      O3943   1.262       .  A
N3928      O3944   1.262       .  A
N3930      O3941   1.262       .  A
N3930      O3942   1.262   1_556  A
C3932      C3933   1.395       .  A
C3932      N3937   1.430       .  S
C3933      C3934   1.402       .  A
C3933      H3938   1.086       .  S
C3934      C3935   1.410       .  A
C3935      C3936   1.400       .  A
C3935      N3939   1.428   1_556  S
C3936      H3940   1.086   1_556  S
N3937      O3947   1.262       .  A
N3937      O3948   1.262       .  A
N3939      O3945   1.262       .  A
N3939      O3946   1.262       .  A
C3949      C3950   1.407       .  A
C3949      C3954   1.407       .  A
C3949      H3959   1.086       .  S
C3950      C3955   1.493       .  S
C3950      C3951   1.410       .  A
C3951      C3952   1.398       .  A
C3951      N3956   1.429       .  S
C3952      C3953   1.406       .  A
C3952      H3957   1.086       .  S
C3953      C3954   1.414       .  A
C3954      N3958   1.428       .  S
C3955      C3960   1.409       .  A
C3955      C3964   1.408       .  A
N3956      O3971   1.262       .  A
N3956      O3972   1.262       .  A
N3958      O3970   1.262       .  A
C3960      C3961   1.397       .  A
C3960      N3965   1.429       .  S
C3961      C3962   1.408       .  A
C3962      C3963   1.412       .  A
C3963      C3964   1.407       .  A
C3963      N3967   1.427       .  S
C3964      H3968   1.086       .  S
N3965      O3976   1.262       .  A
N3967      O3973   1.262       .  A
N3967      O3974   1.262       .  A
C3977      C3978   1.395       .  A
C3977      C3982   1.398       .  A
C3977      H3987   1.085       .  S
C3978      C3979   1.410       .  A
C3979      C3980   1.409       .  A
C3980      C3981   1.408       .  A
C3980      H3985   1.084       .  S
C3981      C3982   1.420       .  A
C3982      N3986   1.429       .  S
C3983      C3988   1.409       .  A
C3983      C3992   1.399       .  A
N3984      O3999   1.262       .  A
N3984      O4000   1.262       .  A
N3986      O3997   1.262       .  A
N3986      O3998   1.262       .  A
C3988      C3989   1.403       .  A
C3989      C3990   1.405       .  A
C3989      H3994   1.085       .  S
C3990      C3991   1.416       .  A
C3991      C3992   1.401       .  A
C3991      N3995   1.429       .  S
C3992      H3996   1.086   1_655  S
N3993      O4003   1.262       .  A
N3993      O4004   1.262       .  A
N3995      O4001   1.262       .  A
N3995      O4002   1.262       .  A
C4005      C4006   1.397       .  A
C4005      C4010   1.402       .  A
C4005      H4015   1.086       .  S
C4006      C4011   1.486       .  S
C4006      C4007   1.410       .  A
C4007      C4008   1.406       .  A
C4007      N4012   1.428       .  S
C4008      C4009   1.407       .  A
C4008      H4013   1.085       .  S
C4009      C4010   1.421       .  A
C4010      N4014   1.429       .  S
C4011      C4016   1.407       .  A
C4011      C4020   1.404       .  A
N4012      O4027   1.262       .  A
N4012      O4028   1.262       .  A
N4014      O4025   1.262       .  A
N4014      O4026   1.262       .  A
C4016      C4017   1.400       .  A
C4016      N4021   1.427       .  S
C4017      C4018   1.404       .  A
C4017      H4022   1.086       .  S
C4018      C4019   1.415       .  A
C4019      C4020   1.408       .  A
C4019      N4023   1.429       .  S
C4020      H4024   1.085       .  S
N4021      O4031   1.262       .  A
N4021      O4032   1.262       .  A
N4023      O4029   1.262       .  A
N4023      O4030   1.262       .  A
C4033      C4034   1.405       .  A
C4033      C4038   1.406       .  A
C4033      H4043   1.086       .  S
C4034      C4039   1.486       .  S
C4034      C4035   1.407       .  A
C4035      C4036   1.394       .  A
C4035      N4040   1.429       .  S
C4036      C4037   1.406       .  A
C4036      H4041   1.086       .  S
C4037      C4038   1.415       .  A
C4038      N4042   1.428       .  S
C4039      C4044   1.409       .  A
C4039      C4048   1.403       .  A
N4040      O4055   1.262       .  A
N4040      O4056   1.262       .  A
N4042      O4053   1.262       .  A
N4042      O4054   1.262       .  A
C4044      C4045   1.399       .  A
C4044      N4049   1.429       .  S
C4045      C4046   1.407       .  A
C4045      H4050   1.086       .  S
C4046      C4047   1.414       .  A
C4047      C4048   1.403       .  A
C4047      N4051   1.428       .  S
C4048      H4052   1.086       .  S
N4049      O4059   1.262       .  A
N4049      O4060   1.262       .  A
N4051      O4057   1.262       .  A
N4051      O4058   1.262       .  A
C4061      C4062   1.407       .  A
C4061      C4066   1.401       .  A
C4061      H4071   1.086       .  S
C4062      C4067   1.496       .  S
C4062      C4063   1.416       .  A
C4063      C4064   1.404       .  A
C4063      N4068   1.429       .  S
C4064      C4065   1.403       .  A
C4064      H4069   1.087       .  S
C4065      C4066   1.408       .  A
C4066      N4070   1.428       .  S
C4067      C4072   1.412       .  A
C4067      C4076   1.408       .  A
N4068      O4083   1.262       .  A
N4068      O4084   1.262       .  A
N4070      O4081   1.262       .  A
N4070      O4082   1.262       .  A
C4072      C4073   1.401       .  A
C4072      N4077   1.429       .  S
C4073      C4074   1.409       .  A
C4073      H4078   1.085       .  S
C4074      C4075   1.412       .  A
C4075      C4076   1.404       .  A
C4075      N4079   1.428       .  S
C4076      H4080   1.085       .  S
N4077      O4087   1.262       .  A
N4077      O4088   1.262       .  A
N4079      O4085   1.262       .  A
N4079      O4086   1.262       .  A
C4089      C4090   1.400       .  A
C4089      C4094   1.404       .  A
C4089      H4099   1.085       .  S
C4090      C4095   1.490       .  S
C4090      C4091   1.411       .  A
C4091      C4092   1.405       .  A
C4091      N4096   1.428       .  S
C4092      C4093   1.407       .  A
C4092      H4097   1.085       .  S
C4093      C4094   1.421       .  A
C4094      N4098   1.429       .  S
C4095      C4100   1.410       .  A
C4095      C4104   1.408       .  A
N4096      O4111   1.262       .  A
N4096      O4112   1.262       .  A
N4098      O4109   1.262       .  A
N4098      O4110   1.262       .  A
C4100      C4101   1.399       .  A
C4100      N4105   1.428       .  S
C4101      C4102   1.401       .  A
C4101      H4106   1.085       .  S
C4102      C4103   1.410       .  A
C4103      C4104   1.408       .  A
C4103      N4107   1.429       .  S
C4104      H4108   1.084       .  S
N4105      O4115   1.262       .  A
N4105      O4116   1.262       .  A
N4107      O4113   1.262       .  A
N4107      O4114   1.262       .  A
C4117      C4118   1.401       .  A
C4117      C4122   1.395       .  A
C4117      H4127   1.085       .  S
C4118      C4123   1.484       .  S
C4118      C4119   1.414       .  A
C4119      C4120   1.402       .  A
C4119      N4124   1.428       .  S
C4120      C4121   1.401       .  A
C4120      H4125   1.086       .  S
C4121      C4122   1.411       .  A
C4122      N4126   1.429       .  S
C4123      C4128   1.414       .  A
C4123      C4132   1.401       .  A
N4124      O4139   1.262       .  A
N4124      O4140   1.262       .  A
N4126      O4137   1.262       .  A
N4126      O4138   1.262       .  A
C4128      C4129   1.398       .  A
C4128      N4133   1.430       .  S
C4129      C4130   1.400       .  A
C4129      H4134   1.086       .  S
C4130      C4131   1.413       .  A
C4131      C4132   1.400       .  A
C4131      N4135   1.429       .  S
C4132      H4136   1.086       .  S
N4133      O4143   1.262       .  A
N4133      O4144   1.262       .  A
N4135      O4141   1.262       .  A
N4135      O4142   1.262       .  A
C4145      C4146   1.402       .  A
C4145      C4150   1.404       .  A
C4145      H4155   1.085       .  S
C4146      C4151   1.492       .  S
C4146      C4147   1.413       .  A
C4147      C4148   1.404       .  A
C4148      C4149   1.405       .  A
C4148      H4153   1.085       .  S
C4149      C4150   1.417       .  A
C4150      N4154   1.429       .  S
C4151      C4156   1.413       .  A
C4151      C4160   1.402       .  A
N4152      O4167   1.262       .  A
N4152      O4168   1.262       .  A
N4154      O4165   1.262       .  A
N4154      O4166   1.262       .  A
C4156      C4157   1.405       .  A
C4156      N4161   1.428       .  S
C4157      C4158   1.405       .  A
C4157      H4162   1.085       .  S
C4159      N4163   1.429       .  S
C4160      H4164   1.085       .  S
N4161      O4171   1.262       .  A
N4161      O4172   1.262       .  A
N4163      O4169   1.262       .  A
N4163      O4170   1.262   1_455  A
C4173      C4174   1.407       .  A
C4173      C4178   1.408       .  A
C4173      H4183   1.084       .  S
C4175      N4180   1.430       .  S
C4176      C4177   1.409       .  A
C4176      H4181   1.084       .  S
C4177      C4178   1.414       .  A
C4178      N4182   1.428       .  S
C4179      C4184   1.412       .  A
C4179      C4188   1.405       .  A
N4180      O4195   1.262       .  A
N4180      O4196   1.262       .  A
N4182      O4193   1.262       .  A
N4182      O4194   1.262       .  A
C4184      C4185   1.402       .  A
C4185      C4186   1.405       .  A
C4185      H4190   1.086       .  S
C4186      C4187   1.411       .  A
C4187      C4188   1.401       .  A
C4187      N4191   1.428       .  S
C4188      H4192   1.085       .  S
N4189      O4199   1.262       .  A
N4189      O4200   1.262       .  A
N4191      O4197   1.262       .  A
N4191      O4198   1.262       .  A
C4201      C4202   1.402       .  A
C4201      C4206   1.401       .  A
C4201      H4211   1.085       .  S
C4202      C4207   1.496       .  S
C4202      C4203   1.416       .  A
C4203      C4204   1.405       .  A
C4203      N4208   1.429       .  S
C4204      C4205   1.404       .  A
C4204      H4209   1.085       .  S
C4205      C4206   1.416       .  A
C4206      N4210   1.429       .  S
C4207      C4212   1.417       .  A
C4207      C4216   1.401       .  A
N4208      O4223   1.262       .  A
N4208      O4224   1.262       .  A
N4210      O4221   1.262       .  A
N4210      O4222   1.262       .  A
C4212      C4213   1.407       .  A
C4212      N4217   1.429       .  S
C4213      C4214   1.405       .  A
C4213      H4218   1.085       .  S
C4214      C4215   1.417       .  A
C4215      C4216   1.400       .  A
C4215      N4219   1.429       .  S
C4216      H4220   1.084       .  S
N4217      O4227   1.262       .  A
N4217      O4228   1.262       .  A
N4219      O4225   1.262       .  A
N4219      O4226   1.262       .  A
C4229      C4230   1.407       .  A
C4229      C4234   1.403       .  A
C4229      H4239   1.084   1_565  S
C4230      C4235   1.489   1_565  S
C4230      C4231   1.411       .  A
C4231      C4232   1.395       .  A
C4231      N4236   1.430       .  S
C4232      C4233   1.404       .  A
C4232      H4237   1.085       .  S
C4233      C4234   1.409       .  A
C4234      N4238   1.428       .  S
C4235      C4240   1.411       .  A
C4235      C4244   1.405       .  A
N4236      O4251   1.262       .  A
N4236      O4252   1.262       .  A
N4238      O4249   1.262       .  A
N4238      O4250   1.262       .  A
C4240      C4241   1.396       .  A
C4240      N4245   1.430       .  S
C4241      C4242   1.406       .  A
C4241      H4246   1.085       .  S
C4242      C4243   1.413       .  A
C4243      C4244   1.403       .  A
C4243      N4247   1.427       .  S
C4244      H4248   1.084   1_545  S
N4245      O4255   1.262       .  A
N4245      O4256   1.262       .  A
N4247      O4253   1.262       .  A
N4247      O4254   1.261       .  A
C4257      C4258   1.403       .  A
C4257      C4262   1.398       .  A
C4257      H4267   1.085       .  S
C4258      C4263   1.479       .  S
C4258      C4259   1.410       .  A
C4259      C4260   1.398       .  A
C4259      N4264   1.429       .  S
C4260      C4261   1.403       .  A
C4260      H4265   1.085       .  S
C4261      C4262   1.409       .  A
C4262      N4266   1.429       .  S
C4263      C4268   1.405       .  A
C4263      C4272   1.406       .  A
N4264      O4279   1.262       .  A
N4264      O4280   1.262       .  A
N4266      O4277   1.262       .  A
N4266      O4278   1.262       .  A
C4268      C4269   1.390       .  A
C4268      N4273   1.429       .  S
C4269      C4270   1.406       .  A
C4269      H4274   1.086       .  S
C4270      C4271   1.411       .  A
C4271      C4272   1.405       .  A
C4271      N4275   1.428       .  S
C4272      H4276   1.086       .  S
N4273      O4283   1.262       .  A
N4273      O4284   1.262       .  A
N4275      O4281   1.262       .  A
N4275      O4282   1.262       .  A
C4285      C4286   1.403       .  A
C4285      C4290   1.399       .  A
C4285      H4295   1.085       .  S
C4286      C4291   1.494       .  S
C4286      C4287   1.416       .  A
C4287      C4288   1.405       .  A
C4287      N4292   1.428       .  S
C4288      C4289   1.402       .  A
C4288      H4293   1.086       .  S
C4289      C4290   1.413       .  A
C4290      N4294   1.429       .  S
C4291      C4296   1.418       .  A
C4291      C4300   1.403       .  A
N4292      O4307   1.262       .  A
N4292      O4308   1.262       .  A
N4294      O4305   1.262       .  A
N4294      O4306   1.262       .  A
C4296      C4297   1.403       .  A
C4296      N4301   1.429       .  S
C4297      C4298   1.400       .  A
C4297      H4302   1.086       .  S
C4298      C4299   1.412       .  A
C4299      C4300   1.403       .  A
C4299      N4303   1.429       .  S
C4300      H4304   1.085       .  S
N4301      O4311   1.262       .  A
N4301      O4312   1.261       .  A
N4303      O4309   1.262       .  A
N4303      O4310   1.262       .  A
C4313      C4314   1.398       .  A
C4313      C4318   1.402       .  A
C4313      H4323   1.086       .  S
C4314      C4319   1.489       .  S
C4314      C4315   1.413       .  A
C4315      C4316   1.404       .  A
C4315      N4320   1.427       .  S
C4316      C4317   1.403       .  A
C4316      H4321   1.086       .  S
C4317      C4318   1.422       .  A
C4318      N4322   1.430       .  S
C4319      C4324   1.413       .  A
C4319      C4328   1.401       .  A
N4320      O4335   1.262       .  A
N4320      O4336   1.262       .  A
N4322      O4333   1.262       .  A
N4322      O4334   1.262       .  A
C4324      C4325   1.406       .  A
C4324      N4329   1.428       .  S
C4325      C4326   1.403       .  A
C4325      H4330   1.085       .  S
C4326      C4327   1.414       .  A
C4327      C4328   1.402       .  A
C4327      N4331   1.429       .  S
C4328      H4332   1.085       .  S
N4329      O4339   1.262       .  A
N4329      O4340   1.262       .  A
N4331      O4337   1.262       .  A
N4331      O4338   1.262       .  A
C4341      C4342   1.401       .  A
C4341      C4346   1.406       .  A
C4341      H4351   1.087       .  S
C4342      C4347   1.493       .  S
C4342      C4343   1.410       .  A
C4343      C4344   1.406       .  A
C4343      N4348   1.428       .  S
C4344      C4345   1.407       .  A
C4344      H4349   1.086       .  S
C4345      C4346   1.422       .  A
C4346      N4350   1.429       .  S
C4347      C4352   1.408       .  A
C4347      C4356   1.404       .  A
N4348      O4363   1.262       .  A
N4348      O4364   1.262       .  A
N4350      O4361   1.262       .  A
N4350      O4362   1.262       .  A
C4352      C4353   1.401       .  A
C4352      N4357   1.428       .  S
C4353      C4354   1.407       .  A
C4353      H4358   1.087       .  S
C4354      C4355   1.419       .  A
C4355      C4356   1.409       .  A
C4355      N4359   1.428       .  S
C4356      H4360   1.087       .  S
N4357      O4367   1.262       .  A
N4357      O4368   1.262       .  A
N4359      O4365   1.262       .  A
N4359      O4366   1.262       .  A
C4369      C4370   1.400       .  A
C4370      C4375   1.488       .  S
C4370      C4371   1.414       .  A
C4371      C4372   1.400       .  A
C4371      N4376   1.429       .  S
C4372      C4373   1.404       .  A
C4372      H4377   1.085       .  S
C4374      N4378   1.429   1_455  S
C4375      C4380   1.414       .  A
C4375      C4384   1.400       .  A
N4376      O4391   1.262       .  A
N4376      O4392   1.262       .  A
N4378      O4389   1.262       .  A
N4378      O4390   1.262       .  A
C4380      C4381   1.402       .  A
C4380      N4385   1.429       .  S
C4381      C4382   1.405       .  A
C4381      H4386   1.085       .  S
C4382      C4383   1.418       .  A
C4383      C4384   1.396       .  A
C4383      N4387   1.429       .  S
C4384      H4388   1.085       .  S
N4385      O4395   1.262       .  A
N4385      O4396   1.262       .  A
N4387      O4393   1.262       .  A
N4387      O4394   1.262       .  A
C4397      C4402   1.411       .  A
C4397      H4407   1.084   1_565  S
C4398      C4403   1.491   1_565  S
C4398      C4399   1.408       .  A
C4399      N4404   1.429       .  S
C4400      C4401   1.406       .  A
C4400      H4405   1.085       .  S
C4401      C4402   1.412       .  A
C4402      N4406   1.428       .  S
C4403      C4408   1.408       .  A
C4403      C4412   1.406       .  A
N4404      O4419   1.262       .  A
N4404      O4420   1.262       .  A
N4406      O4417   1.262       .  A
N4406      O4418   1.262       .  A
C4408      C4409   1.400       .  A
C4408      N4413   1.429   1_655  S
C4409      C4410   1.408       .  A
C4409      H4414   1.085       .  S
C4410      C4411   1.413       .  A
C4411      C4412   1.405       .  A
C4411      N4415   1.428       .  S
C4412      H4416   1.085   1_545  S
N4413      O4423   1.262       .  A
N4415      O4421   1.262       .  A
N4415      O4422   1.262       .  A
C4425      C4426   1.403       .  A
C4425      C4430   1.406       .  A
C4425      H4435   1.086       .  S
C4426      C4431   1.482       .  S
C4426      C4427   1.407       .  A
C4427      C4428   1.397       .  A
C4427      N4432   1.428       .  S
C4428      C4429   1.404       .  A
C4428      H4433   1.087       .  S
C4429      C4430   1.415       .  A
C4430      N4434   1.429       .  S
C4431      C4436   1.409       .  A
C4431      C4440   1.397       .  A
N4432      O4447   1.262       .  A
N4432      O4448   1.262       .  A
N4434      O4445   1.262       .  A
N4434      O4446   1.262       .  A
C4436      C4437   1.405       .  A
C4436      N4441   1.428       .  S
C4437      C4438   1.408       .  A
C4437      H4442   1.086       .  S
C4438      C4439   1.419       .  A
C4439      C4440   1.399       .  A
C4439      N4443   1.428       .  S
C4440      H4444   1.087       .  S
N4441      O4451   1.262       .  A
N4441      O4452   1.262       .  A
N4443      O4449   1.262       .  A
N4443      O4450   1.262       .  A
C4453      C4454   1.407       .  A
C4453      C4458   1.407       .  A
C4453      H4463   1.084       .  S
C4454      C4459   1.486       .  S
C4454      C4455   1.408       .  A
C4455      C4456   1.394       .  A
C4455      N4460   1.430       .  S
C4456      C4457   1.406       .  A
C4456      H4461   1.085       .  S
C4457      C4458   1.412       .  A
C4458      N4462   1.428       .  S
C4459      C4464   1.406       .  A
C4459      C4468   1.408       .  A
N4460      O4475   1.262       .  A
N4460      O4476   1.262       .  A
N4462      O4473   1.262       .  A
N4462      O4474   1.262       .  A
C4464      C4465   1.394       .  A
C4464      N4469   1.429       .  S
C4465      C4466   1.409       .  A
C4465      H4470   1.085       .  S
C4466      C4467   1.411       .  A
C4467      C4468   1.405       .  A
C4467      N4471   1.428       .  S
C4468      H4472   1.084       .  S
N4469      O4479   1.262       .  A
N4469      O4480   1.262       .  A
N4471      O4477   1.262       .  A
N4471      O4478   1.262       .  A
