geometry optimzed in LAMMPS
_audit_creation_date              2020-12-01 
_audit_creation_method            'lammps2cif' 
_symmetry_space_group_name_H-M    'P1' 
_symmetry_Int_Tables_number       1 
_symmetry_cell_setting            triclinic 
loop_ 
_symmetry_equiv_pos_as_xyz 
  x,y,z 
_cell_length_a                    40.20927742 
_cell_length_b                    34.09217899877866 
_cell_length_c                    45.01347753819961 
_cell_angle_alpha                 91.05355818113823 
_cell_angle_beta                  107.4664915916202 
_cell_angle_gamma                 88.66324247148813 
loop_ 
_atom_site_label 
_atom_site_type_symbol 
_atom_site_fract_x 
_atom_site_fract_y 
_atom_site_fract_z 
_atom_site_charge 
O1          O  0.36076489  0.53238723  0.41684980    -0.85600
O2          O  0.29401145  0.55622219  0.39154987    -0.82600
C3          C  0.26800959  0.57535634  0.37544132     0.97900
O4          O  0.27116682  0.59825997  0.35452870    -0.82700
O5          O  0.32683622  0.65494010  0.37035983    -0.85300
C6          C  0.35744109  0.66780502  0.37560449     1.02400
O7          O  0.38169330  0.64474845  0.37376175    -0.78100
O8          O  0.38338995  0.59115814  0.42024138    -0.78300
C9          C  0.37320287  0.56267046  0.43287023     1.02400
O10         O  0.36020961  0.49910025  0.35623549    -0.85600
O11         O  0.29160690  0.52158669  0.33241240    -0.82600
C12         C  0.28578409  0.53902590  0.30673314     0.97900
O13         O  0.29684895  0.57279469  0.30545748    -0.82700
O14         O  0.34662153  0.62611182  0.31727150    -0.85300
C15         C  0.36984479  0.60381969  0.31167273     1.02400
O16         O  0.38896398  0.58221367  0.33314704    -0.78100
O17         O  0.40465373  0.53148037  0.38455528    -0.78200
C18         C  0.39238197  0.50080355  0.36973560     1.02300
Cr19       Cr  0.32775735  0.53077533  0.37340384     1.93700
Cr20       Cr  0.31251413  0.61070911  0.33940960     1.93200
Cr21       Cr  0.38660124  0.58668033  0.37695914     1.39100
O22         O  0.34177863  0.57614743  0.36332031    -1.23300
O23         O  0.38972019  0.53061762  0.07886354    -0.85600
O24         O  0.45728919  0.54855252  0.10682803    -0.82600
C25         C  0.48096808  0.57188236  0.12049285     0.97900
O26         O  0.47606656  0.59731177  0.13974175    -0.82700
O27         O  0.41902359  0.65222730  0.12591951    -0.85300
C28         C  0.38890375  0.66632788  0.12285404     1.02400
O29         O  0.36523205  0.64362911  0.12430809    -0.78100
O30         O  0.36516465  0.58961523  0.07576985    -0.78300
C31         C  0.37617626  0.56054435  0.06293489     1.02400
O32         O  0.38674030  0.49763377  0.13769033    -0.85600
O33         O  0.45527553  0.51714119  0.16436389    -0.82600
C34         C  0.46409648  0.53728018  0.18924219     0.97900
O35         O  0.45470181  0.57246313  0.18989229    -0.82700
O36         O  0.40172795  0.62340677  0.17996358    -0.85300
C37         C  0.37839992  0.60191339  0.18466530     1.02400
O38         O  0.35900093  0.58123965  0.16258244    -0.78100
O39         O  0.34298274  0.53099454  0.10887238    -0.78200
C40         C  0.35483601  0.49970076  0.12286938     1.02300
Cr41       Cr  0.42095550  0.52726034  0.12280487     1.93700
Cr42       Cr  0.43540535  0.60881277  0.15628229     1.93200
Cr43       Cr  0.36145865  0.58555251  0.11889742     1.39100
O44         O  0.40664281  0.57383342  0.13267829    -1.23300
O45         O  0.11517297  0.41779136  0.08160879    -0.85600
O46         O  0.13384380  0.34600558  0.10956462    -0.82600
C47         C  0.15227997  0.32042132  0.12719545     0.97900
O48         O  0.17924709  0.33086200  0.14841527    -0.82700
O49         O  0.22847347  0.38085911  0.13162993    -0.85300
C50         C  0.24118278  0.41295767  0.12653480     1.02400
O51         O  0.22676969  0.44531352  0.12998072    -0.78100
O52         O  0.16555004  0.44462846  0.08390102    -0.78300
C53         C  0.13629173  0.43180715  0.06836335     1.02400
O54         O  0.10533543  0.44595147  0.14149218    -0.85600
O55         O  0.12492086  0.37548544  0.16762672    -0.82600
C56         C  0.14782828  0.37896509  0.19404863     0.97900
O57         O  0.17912158  0.38529450  0.19587567    -0.82700
O58         O  0.22913048  0.42817393  0.18467318    -0.85300
C59         C  0.21697981  0.46058153  0.19118217     1.02400
O60         O  0.19120572  0.47677453  0.17163682    -0.78100
O61         O  0.13150865  0.48730506  0.12056336    -0.78200
C62         C  0.10755842  0.47986683  0.13210642     1.02300
Cr63       Cr  0.12331560  0.39759905  0.12577715     1.93700
Cr64       Cr  0.20121826  0.38312340  0.16251455     1.93200
Cr65       Cr  0.17789128  0.45973609  0.12758919     1.39100
O66         O  0.16727423  0.41277729  0.13802065    -1.23300
O67         O  0.13878148  0.42709821  0.42360706    -0.85600
O68         O  0.12258290  0.35736041  0.39303486    -0.82600
C69         C  0.10484606  0.33242906  0.37451018     0.97900
O70         O  0.07939240  0.34358327  0.35197475    -0.82700
O71         O  0.02831521  0.39233683  0.36797409    -0.85300
C72         C  0.01367552  0.42372024  0.37355523     1.02400
O73         O  0.02726117  0.45658132  0.37250846    -0.78100
O74         O  0.08693017  0.45319812  0.42079471    -0.78300
C75         C  0.11572307  0.43830687  0.43633483     1.02400
O76         O  0.15164436  0.45728568  0.36702783    -0.85600
O77         O  0.13469543  0.38709137  0.33738972    -0.82600
C78         C  0.11277556  0.39013775  0.31040721     0.97900
O79         O  0.08130430  0.39882561  0.30718854    -0.82700
O80         O  0.02940663  0.44213710  0.31834809    -0.85300
C81         C  0.04163365  0.47419239  0.31322579     1.02400
O82         O  0.06538317  0.49057565  0.33455291    -0.78100
O83         O  0.12283548  0.49795424  0.38831743    -0.78200
C84         C  0.14824419  0.49058338  0.37812553     1.02300
Cr85       Cr  0.13346150  0.40866752  0.37930919     1.93700
Cr86       Cr  0.05719254  0.39613077  0.33898917     1.93200
Cr87       Cr  0.07661567  0.47111596  0.37791496     1.39100
O88         O  0.08934520  0.42475173  0.36581753    -1.23300
O89         O  0.38527714  0.92812132  0.17800448    -0.85600
O90         O  0.37720340  0.85842402  0.14395317    -0.82600
C91         C  0.35705240  0.83385271  0.12670216     0.97900
O92         O  0.32959584  0.84525856  0.10642444    -0.82700
O93         O  0.27608858  0.89241173  0.11860749    -0.85300
C94         C  0.25981283  0.92334176  0.12234855     1.02400
O95         O  0.27380800  0.95612831  0.12343975    -0.78100
O96         O  0.33176694  0.94935587  0.17417666    -0.78300
C97         C  0.36119138  0.93645032  0.19039598     1.02400
O98         O  0.39857929  0.96608783  0.12398062    -0.85600
O99         O  0.38803583  0.89748926  0.09198964    -0.82600
C100        C  0.36587065  0.89650472  0.06519675     0.97900
O101        O  0.33366025  0.89921529  0.06158990    -0.82700
O102        O  0.28099876  0.94280526  0.06976899    -0.85300
C103        C  0.29110285  0.97724216  0.06788928     1.02400
O104        O  0.31328402  0.99366525  0.09057242    -0.78100
O105        O  0.36787863  0.00061135  0.14727503    -0.78200
C106        C  0.39324892  0.99771105  0.13660104     1.02300
Cr107      Cr  0.38348678  0.91378037  0.13361121     1.93700
Cr108      Cr  0.30774704  0.89706156  0.09196382     1.93200
Cr109      Cr  0.32316199  0.97110911  0.13270688     1.39100
O110        O  0.33838719  0.92647170  0.11963976    -1.23300
O111        O  0.36371324  0.92761086  0.33774568    -0.85600
O112        O  0.38290056  0.85613060  0.36479476    -0.82600
C113        C  0.40193004  0.83018248  0.38141335     0.97900
O114        O  0.42957827  0.84018225  0.40220223    -0.82700
O115        O  0.47811334  0.89115558  0.38498839    -0.85300
C116        C  0.49095796  0.92343656  0.38049680     1.02400
O117        O  0.47621981  0.95561170  0.38392305    -0.78100
O118        O  0.41428722  0.95259803  0.33835839    -0.78300
C119        C  0.38517307  0.93834262  0.32368455     1.02400
O120        O  0.35659396  0.95564913  0.39830564    -0.85600
O121        O  0.37626533  0.88516420  0.42349993    -0.82600
C122        C  0.39992610  0.88868170  0.44937261     0.97900
O123        O  0.43101347  0.89445390  0.45049106    -0.82700
O124        O  0.47920422  0.93825353  0.43820966    -0.85300
C125        C  0.46614764  0.96936236  0.44609866     1.02400
O126        O  0.44095270  0.98648805  0.42638303    -0.78100
O127        O  0.38055176  0.99636544  0.37497448    -0.78200
C128        C  0.35775704  0.98922721  0.38795637     1.02300
Cr129      Cr  0.37329138  0.90742429  0.38172665     1.93700
Cr130      Cr  0.45170108  0.89270950  0.41644454     1.93200
Cr131      Cr  0.42724827  0.96932150  0.38192650     1.39100
O132        O  0.41723740  0.92235767  0.39275541    -1.23300
O133        O  0.08650093  0.04577318  0.17613226    -0.85600
O134        O  0.02302023  0.04120702  0.13359542    -0.82600
C135        C  0.00875250  0.07428512  0.13496266     0.97900
O136        O  0.02183321  0.10516027  0.12826123    -0.82700
O137        O  0.06849226  0.15170479  0.10585139    -0.85300
C138        C  0.09652470  0.16248061  0.12563511     1.02400
O139        O  0.11598980  0.13725813  0.14282509    -0.78100
O140        O  0.13663031  0.06776678  0.17289027    -0.78300
C141        C  0.11617285  0.05973189  0.18879198     1.02400
O142        O  0.11674080  0.99679518  0.13925297    -0.85600
O143        O  0.05355792  0.00358474  0.09076621    -0.82600
C144        C  0.02709546  0.01921510  0.07154298     0.97900
O145        O  0.01646227  0.05290608  0.07719192    -0.82700
O146        O  0.06355693  0.09364374  0.05944399    -0.85300
C147        C  0.09369726  0.10091163  0.05851780     1.02400
O148        O  0.11877183  0.10421296  0.08367877    -0.78100
O149        O  0.13898475  0.03424201  0.11202934    -0.78200
C150        C  0.13794107  0.00157527  0.12405459     1.02300
Cr151      Cr  0.07082323  0.02522471  0.13370834     1.93700
Cr152      Cr  0.04551768  0.09904946  0.09518152     1.93200
Cr153      Cr  0.12429180  0.08456516  0.12737787     1.39100
O154        O  0.08041278  0.07025236  0.11911121    -1.23300
O155        O  0.14582774  0.03358035  0.33671741    -0.85600
O156        O  0.21043013  0.05758302  0.36893777    -0.82600
C157        C  0.23483294  0.07488971  0.38849737     0.97900
O158        O  0.22882806  0.09509133  0.41024336    -0.82700
O159        O  0.17504622  0.15326791  0.38842189    -0.85300
C160        C  0.14457389  0.16806708  0.37984421     1.02400
O161        O  0.11858285  0.14708331  0.37809359    -0.78100
O162        O  0.12060132  0.09203329  0.33275941    -0.78300
C163        C  0.13312568  0.06360347  0.32067141     1.02400
O164        O  0.13837345  0.99910435  0.39312057    -0.85600
O165        O  0.20617573  0.02200487  0.42500293    -0.82600
C166        C  0.20865643  0.03895408  0.45087620     0.97900
O167        O  0.19345363  0.07129884  0.45184742    -0.82700
O168        O  0.14535087  0.12945777  0.43520467    -0.85300
C169        C  0.12122567  0.10858818  0.43855382     1.02400
O170        O  0.10459319  0.08662084  0.41610018    -0.78100
O171        O  0.09512291  0.03462043  0.36491989    -0.78200
C172        C  0.10653740  0.00247345  0.37782159     1.02300
Cr173      Cr  0.17381994  0.03141845  0.38184931     1.93700
Cr174      Cr  0.18373168  0.10992579  0.41886609     1.93200
Cr175      Cr  0.11273259  0.08918636  0.37423813     1.39100
O176        O  0.15705224  0.07672786  0.39156864    -1.23300
C177        C  0.12572258  0.06640068  0.22279685    -0.00400
C178        C  0.15127312  0.04257449  0.24281949    -0.12300
C179        C  0.15468485  0.04155791  0.27482493     0.01800
C180        C  0.13209541  0.06484945  0.28726824    -0.00500
C181        C  0.10790342  0.09022405  0.26722834    -0.12200
C182        C  0.10443841  0.09095394  0.23536769     0.01700
H183        H  0.16738531  0.02333443  0.23323401     0.14700
H184        H  0.09072875  0.10861406  0.27619702     0.14700
C185        C  0.07802249  0.11648202  0.21573871     0.36400
C186        C  0.18153436  0.01616910  0.29405310     0.36300
N187        N  0.05687401  0.13695116  0.20004461    -0.44000
N188        N  0.20313254  0.99577615  0.30929321    -0.44000
C189        C  0.09935283  0.10542216  0.02730067    -0.00400
C190        C  0.13171029  0.11815615  0.02577885    -0.12300
C191        C  0.13890166  0.12124067  0.49732571     0.01800
C192        C  0.11366538  0.10969194  0.46909685    -0.00500
C193        C  0.08115584  0.09769563  0.47048233    -0.12200
C194        C  0.07315044  0.09712059  0.99872532     0.01700
H195        H  0.15184453  0.12585259  0.04709194     0.14700
H196        H  0.06114973  0.08996753  0.44907056     0.14700
C197        C  0.03768266  0.08871015  0.99710438     0.36400
C198        C  0.17232274  0.13660043  0.49806362     0.36300
N199        N  0.00887529  0.08308028  0.99520999    -0.44000
N200        N  0.19901467  0.14924661  0.49875033    -0.44000
C201        C  0.48070749  0.98392848  0.47860897    -0.00400
C202        C  0.00809520  0.95805224  0.49772371    -0.12300
C203        C  0.02296928  0.96867503  0.02871849     0.01800
C204        C  0.00847676  0.00023102  0.04156816    -0.00500
C205        C  0.47994795  0.02581891  0.02255749    -0.12200
C206        C  0.46503463  0.01464230  0.49138495     0.01700
H207        H  0.02009670  0.93421294  0.48809117     0.14700
H208        H  0.46794270  0.05016136  0.03157365     0.14700
C209        C  0.43511638  0.03684303  0.47303508     0.40400
C210        C  0.05324290  0.94659814  0.04657297     0.36300
N211        N  0.41151878  0.05522576  0.45839613    -0.44000
N212        N  0.07729707  0.92860160  0.06087772    -0.44000
C213        C  0.33111702  0.01921188  0.38985374    -0.00400
C214        C  0.31157112  0.03860865  0.36269327    -0.12300
C215        C  0.28134272  0.06053978  0.36218468     0.01800
C216        C  0.27106921  0.06441484  0.38946513    -0.00500
C217        C  0.29274203  0.04850201  0.41730637    -0.12200
C218        C  0.32204010  0.02532555  0.41757663     0.01700
H219        H  0.31843444  0.03426919  0.34127594     0.14700
H220        H  0.28492137  0.05094687  0.43838071     0.14700
C221        C  0.34129588  0.00645351  0.44626130     0.36400
C222        C  0.26045502  0.07754330  0.33326430     0.36300
N223        N  0.35664018  0.99123381  0.46921690    -0.44000
N224        N  0.24362691  0.09133664  0.31018152    -0.44000
C225        C  0.02368470  0.92330819  0.37433330    -0.00400
C226        C  0.02407892  0.94318326  0.34744823    -0.12300
C227        C  0.05246235  0.96617486  0.34718107     0.01800
C228        C  0.08144879  0.96972415  0.37433090    -0.00500
C229        C  0.08316284  0.94539457  0.39966185    -0.12200
C230        C  0.05448366  0.92242031  0.39984959     0.01700
H231        H  0.50187406  0.94934731  0.32884020     0.14700
H232        H  0.10536914  0.94711740  0.42040744     0.14700
C233        C  0.05546447  0.90216454  0.42798317     0.36400
C234        C  0.04999951  0.98794861  0.31931387     0.36300
N235        N  0.05606824  0.88589705  0.45048139    -0.44000
N236        N  0.04797754  0.00553660  0.29706747    -0.44000
C237        C  0.23116661  0.02279085  0.48063519    -0.00400
C238        C  0.23091439  0.04216129  0.50856597    -0.12300
C239        C  0.25161910  0.02936982  0.03764941     0.01800
C240        C  0.27459782  0.99748555  0.03882273    -0.00500
C241        C  0.27579013  0.97865521  0.01120778    -0.12200
C242        C  0.25421040  0.99038761  0.48213056     0.01700
H243        H  0.21331927  0.06680449  0.50813625     0.14700
H244        H  0.29287239  0.95318158  0.01236974     0.14700
C245        C  0.25605279  0.96855220  0.45484802     0.36400
C246        C  0.24760240  0.04744787  0.06569112     0.36300
N247        N  0.25755742  0.95082509  0.43309635    -0.44000
N248        N  0.24418281  0.06167345  0.08816016    -0.44000
C249        C  0.37692640  0.89196855  0.03681922    -0.00400
C250        C  0.35427886  0.87294066  0.01080847    -0.12300
C251        C  0.36115128  0.87079576  0.48221231     0.01800
C252        C  0.39169046  0.88761748  0.47928641    -0.00500
C253        C  0.41483458  0.90579800  0.50558579    -0.12200
C254        C  0.40769383  0.90845911  0.03407481     0.01700
H255        H  0.33063594  0.85990134  0.01270493     0.14700
H256        H  0.43823256  0.91945248  0.50369898     0.14700
C257        C  0.43150711  0.92969751  0.05942932     0.36400
C258        C  0.33680290  0.85059643  0.45662563     0.36300
N259        N  0.45073775  0.94678531  0.07957239    -0.44000
N260        N  0.31731844  0.83436304  0.43612146    -0.44000
C261        C  0.37711339  0.93420601  0.28955429    -0.00400
C262        C  0.40476447  0.92418105  0.27762675    -0.12300
C263        C  0.40027295  0.92340717  0.24561863     0.01800
C264        C  0.36729168  0.93294196  0.22456307    -0.00500
C265        C  0.33920416  0.94122363  0.23663582    -0.12200
C266        C  0.34384346  0.94206909  0.26873537     0.01700
H267        H  0.43037611  0.91753588  0.29354221     0.14700
H268        H  0.31355678  0.94831206  0.22104656     0.14700
C269        C  0.31466860  0.95379832  0.27955301     0.36400
C270        C  0.43040074  0.91383219  0.23554237     0.36300
N271        N  0.29123587  0.96347476  0.28804474    -0.44000
N272        N  0.45467347  0.90623587  0.22763704    -0.44000
C273        C  0.47386214  0.07912260  0.13979783    -0.00400
C274        C  0.47132191  0.06319484  0.16764327    -0.12300
C275        C  0.44281796  0.04002133  0.16773163     0.01800
C276        C  0.41740895  0.03076540  0.13934793    -0.00500
C277        C  0.41784572  0.05028754  0.11232252    -0.12200
C278        C  0.44516034  0.07541607  0.11268510     0.01700
H279        H  0.99253735  0.05906814  0.18730569     0.14700
H280        H  0.39777614  0.04445372  0.09063020     0.14700
C281        C  0.44507569  0.09391519  0.08408345     0.36400
C282        C  0.44148175  0.02383205  0.19676024     0.36300
N283        N  0.44491814  0.10924545  0.06132019    -0.44000
N284        N  0.44014766  0.01139260  0.22011765    -0.44000
C285        C  0.22256697  0.92466090  0.12045256    -0.00400
C286        C  0.20022498  0.94046668  0.09285626    -0.12300
C287        C  0.17096189  0.96336738  0.09313608     0.01800
C288        C  0.16297009  0.96990019  0.12131953    -0.00500
C289        C  0.18246990  0.94942549  0.14801130    -0.12200
C290        C  0.21234808  0.92712215  0.14775036     0.01700
H291        H  0.20799376  0.93899126  0.07177232     0.14700
H292        H  0.17624216  0.95358053  0.16967348     0.14700
C293        C  0.23392927  0.90976976  0.17623710     0.36400
C294        C  0.15088242  0.98198016  0.06458847     0.36300
N295        N  0.25129946  0.89543330  0.19886422    -0.44000
N296        N  0.13478694  0.99701069  0.04179186    -0.44000
C297        C  0.13822692  0.21072645  0.37600033    -0.00400
C298        C  0.15509922  0.23587974  0.40062264    -0.12300
C299        C  0.14410377  0.27515826  0.40149879     0.01800
C300        C  0.11569762  0.29013871  0.37699892    -0.00500
C301        C  0.09946484  0.26477102  0.35209162    -0.12200
C302        C  0.11027970  0.22557636  0.35149843     0.01700
H303        H  0.17588193  0.22423262  0.42012047     0.14700
H304        H  0.07817952  0.27555637  0.33265277     0.14700
C305        C  0.09217830  0.20101368  0.32543480     0.36400
C306        C  0.16207071  0.29873450  0.42823831     0.36300
N307        N  0.07763407  0.18136322  0.30455938    -0.44000
N308        N  0.17654261  0.31746626  0.44974411    -0.44000
C309        C  0.13972090  0.27889007  0.12539894    -0.00400
C310        C  0.10629405  0.27005739  0.10537258    -0.12300
C311        C  0.09097118  0.23340332  0.10578422     0.01800
C312        C  0.10899042  0.20395953  0.12671704    -0.00500
C313        C  0.14238705  0.21282948  0.14670036    -0.12200
C314        C  0.15779751  0.24928507  0.14614398     0.01700
H315        H  0.09153749  0.29220667  0.08953552     0.14700
H316        H  0.15715447  0.19078721  0.16264690     0.14700
C317        C  0.19238053  0.25494751  0.16723691     0.36400
C318        C  0.05674010  0.22715003  0.08424293     0.36300
N319        N  0.22011711  0.25926863  0.18416582    -0.44000
N320        N  0.02932190  0.22216722  0.06693024    -0.44000
C321        C  0.12220115  0.43516772  0.47012355    -0.00400
C322        C  0.13164950  0.46891732  0.48854484    -0.12300
C323        C  0.13457582  0.46896625  0.02024220     0.01800
C324        C  0.12750867  0.43442173  0.03411772    -0.00500
C325        C  0.11680607  0.40092197  0.01543996    -0.12200
C326        C  0.11422220  0.40087467  0.48352128     0.01700
H327        H  0.13649377  0.49584422  0.47796367     0.14700
H328        H  0.11162698  0.37412881  0.02594278     0.14700
C329        C  0.10257794  0.36610247  0.46486661     0.36400
C330        C  0.14417333  0.50491416  0.03796528     0.36300
N331        N  0.09306835  0.33827700  0.44989188    -0.44000
N332        N  0.15180674  0.53374641  0.05211104    -0.44000
C333        C  0.13858391  0.37710396  0.22383270    -0.00400
C334        C  0.16483361  0.38489591  0.25205619    -0.12300
C335        C  0.15751710  0.38844189  0.28052150     0.01800
C336        C  0.12318513  0.38334905  0.28157760    -0.00500
C337        C  0.09713378  0.37402295  0.25365149    -0.12200
C338        C  0.10434435  0.37108503  0.22506258     0.01700
H339        H  0.19129542  0.38992421  0.25192238     0.14700
H340        H  0.07055328  0.36978630  0.25395644     0.14700
C341        C  0.07572063  0.36299113  0.19750941     0.36400
C342        C  0.18536093  0.40007016  0.30768585     0.36300
N343        N  0.05264815  0.35664518  0.17548655    -0.44000
N344        N  0.20770387  0.40968365  0.32932038    -0.44000
C345        C  0.36605423  0.79084068  0.12810210    -0.00400
C346        C  0.33985882  0.76461810  0.11245057    -0.12300
C347        C  0.34716034  0.72474763  0.10890248     0.01800
C348        C  0.38144411  0.70946651  0.12167454    -0.00500
C349        C  0.40782838  0.73545943  0.13719548    -0.12200
C350        C  0.40059711  0.77568171  0.14039820     0.01700
H351        H  0.31334548  0.77543000  0.10219051     0.14700
H352        H  0.43419726  0.72420319  0.14742454     0.14700
C353        C  0.42952912  0.80053621  0.15549513     0.36400
C354        C  0.31892281  0.70054081  0.09102373     0.36300
N355        N  0.45298936  0.82014548  0.16753079    -0.44000
N356        N  0.29624618  0.68134173  0.07655868    -0.44000
C357        C  0.48604609  0.52041279  0.21872865    -0.00400
C358        C  0.50155241  0.54644991  0.24351036    -0.12300
C359        C  0.02449390  0.53166603  0.27654224     0.01800
C360        C  0.02686539  0.49107023  0.28206648    -0.00500
C361        C  0.01221333  0.46484987  0.25728214    -0.12200
C362        C  0.49096661  0.47967379  0.22341549     0.01700
H363        H  0.49868909  0.57788855  0.24020474     0.14700
H364        H  0.01474732  0.43345155  0.26104435     0.14700
C365        C  0.47656032  0.45103110  0.19918244     0.36400
C366        C  0.03982290  0.56003598  0.30070792     0.36300
N367        N  0.46515942  0.42790901  0.17987349    -0.44000
N368        N  0.05212392  0.58288283  0.31998147    -0.44000
C369        C  0.27494189  0.41615939  0.11996727    -0.00400
C370        C  0.30513831  0.41693205  0.14578703    -0.12300
C371        C  0.33311125  0.44144713  0.14638729     0.01800
C372        C  0.33080814  0.46620740  0.12095200    -0.00500
C373        C  0.30266617  0.46128712  0.09366585    -0.12200
C374        C  0.27528654  0.43604282  0.09286426     0.01700
H375        H  0.30515708  0.40209758  0.16690519     0.14700
H376        H  0.30112197  0.47875077  0.07337598     0.14700
C377        C  0.24594244  0.43379964  0.06492489     0.36400
C378        C  0.36202510  0.44369782  0.17456354     0.36300
N379        N  0.22248391  0.43161174  0.04254888    -0.44000
N380        N  0.38532893  0.44556366  0.19707269    -0.44000
C381        C  0.02142065  0.55830020  0.13109917    -0.00400
C382        C  0.04327517  0.54383201  0.15956048    -0.12300
C383        C  0.07213749  0.51921573  0.16061516     0.01800
C384        C  0.08068340  0.51015569  0.13302205    -0.00500
C385        C  0.06078362  0.52743584  0.10504957    -0.12200
C386        C  0.03091917  0.55049730  0.10374813     0.01700
H387        H  0.03602948  0.54883112  0.18073452     0.14700
H388        H  0.06713383  0.52059799  0.08370637     0.14700
C389        C  0.49352932  0.54479459  0.06116721     0.36400
C390        C  0.09176451  0.50232742  0.19004952     0.36300
N391        N  0.47178415  0.54556989  0.03751742    -0.44000
N392        N  0.10740224  0.48866486  0.21359567    -0.44000
C393        C  0.39003688  0.78829187  0.37883818    -0.00400
C394        C  0.40870605  0.76121700  0.40131127    -0.12300
C395        C  0.39710163  0.72277116  0.40200672     0.01800
C396        C  0.36577114  0.71025764  0.38019524    -0.00500
C397        C  0.34658560  0.73720088  0.35813192    -0.12200
C398        C  0.35835435  0.77562258  0.35707450     0.01700
H399        H  0.43249757  0.77006530  0.41869667     0.14700
H400        H  0.32315583  0.72760300  0.34059970     0.14700
C401        C  0.33746398  0.80077152  0.33279926     0.36400
C402        C  0.41792135  0.69656640  0.42552744     0.36300
N403        N  0.32060565  0.82072065  0.31323646    -0.44000
N404        N  0.43455664  0.67557803  0.44439256    -0.44000
C405        C  0.26634834  0.51945049  0.27746175    -0.00400
C406        C  0.26766049  0.47838506  0.27587979    -0.12300
C407        C  0.25222478  0.45849205  0.24796826     0.01800
C408        C  0.23391362  0.47991169  0.22117225    -0.00500
C409        C  0.23191275  0.52086136  0.22292611    -0.12200
C410        C  0.24831699  0.54082267  0.25051167     0.01700
H411        H  0.28180501  0.46178048  0.29622513     0.14700
H412        H  0.21819953  0.53747164  0.20243586     0.14700
C413        C  0.24602477  0.58317684  0.25007615     0.36400
C414        C  0.25595603  0.41622828  0.24774581     0.36300
N415        N  0.24415700  0.61709311  0.24940432    -0.44000
N416        N  0.25927230  0.38241186  0.24766473    -0.44000
C417        C  0.37519743  0.60116509  0.21672807    -0.00400
C418        C  0.40528032  0.59309776  0.24174770    -0.12300
C419        C  0.40439829  0.59350539  0.27273934     0.01800
C420        C  0.37298618  0.60295027  0.27938295    -0.00500
C421        C  0.34296730  0.61134739  0.25423685    -0.12200
C422        C  0.34379561  0.61029843  0.22323515     0.01700
H423        H  0.42980050  0.58644492  0.23707261     0.14700
H424        H  0.31852098  0.61869184  0.25877291     0.14700
C425        C  0.31263439  0.62066476  0.19862558     0.36400
C426        C  0.43631381  0.58563759  0.29728461     0.36300
N427        N  0.28780362  0.62922205  0.17880554    -0.44000
N428        N  0.46177125  0.57945771  0.31714920    -0.44000
C429        C  0.37537429  0.56361274  0.46645275    -0.00400
C430        C  0.37980942  0.52791321  0.48228055    -0.12300
C431        C  0.37929299  0.52614235  0.01301182     0.01800
C432        C  0.37401979  0.56079750  0.02917630    -0.00500
C433        C  0.36926879  0.59662874  0.01324083    -0.12200
C434        C  0.36961093  0.59821557  0.48215581     0.01700
H435        H  0.38377045  0.50103330  0.47041968     0.14700
H436        H  0.36531349  0.62348669  0.02509016     0.14700
C437        C  0.36273351  0.63552945  0.46664019     0.36400
C438        C  0.38402351  0.48782470  0.02707637     0.36300
N439        N  0.35698483  0.66544182  0.45420762    -0.44000
N440        N  0.38803275  0.45716444  0.03837853    -0.44000
C441        C  0.41654101  0.46748442  0.36969641    -0.00400
C442        C  0.44095983  0.45737453  0.39822097    -0.12300
C443        C  0.47141347  0.43610618  0.39907597     0.01800
C444        C  0.47738198  0.42394816  0.37104800    -0.00500
C445        C  0.45068589  0.42921612  0.34284579    -0.12200
C446        C  0.42056195  0.45146572  0.34185178     0.01700
H447        H  0.43785317  0.46939961  0.41978718     0.14700
H448        H  0.45558527  0.42086738  0.32108959     0.14700
C449        C  0.39721206  0.46244742  0.31185198     0.36400
C450        C  0.00302224  0.44257914  0.43391281     0.36300
N451        N  0.37881590  0.47154373  0.28775682    -0.44000
N452        N  0.02560741  0.44282985  0.45701642    -0.44000
C453        C  0.23317046  0.56517466  0.37841003    -0.00400
C454        C  0.23201169  0.54760228  0.40620922    -0.12300
C455        C  0.20354185  0.52503994  0.40710534     0.01800
C456        C  0.17506360  0.52032251  0.38001963    -0.00500
C457        C  0.17468815  0.54037822  0.35304480    -0.12200
C458        C  0.20326543  0.56265434  0.35196472     0.01700
H459        H  0.25462979  0.54883903  0.42668300     0.14700
H460        H  0.15287320  0.53665783  0.33215376     0.14700
C461        C  0.20237911  0.57886058  0.32236425     0.36400
C462        C  0.20555929  0.50417585  0.43526866     0.36300
N463        N  0.20139522  0.59162714  0.29847898    -0.44000
N464        N  0.20741474  0.48730020  0.45780702    -0.44000
O465        O  0.36068459  0.53265105  0.91676337    -0.85600
O466        O  0.29394741  0.55647391  0.89152879    -0.82600
C467        C  0.26787611  0.57549978  0.87542661     0.97900
O468        O  0.27092278  0.59838343  0.85446720    -0.82700
O469        O  0.32652109  0.65515713  0.87012101    -0.85300
C470        C  0.35712397  0.66803559  0.87536660     1.02400
O471        O  0.38136690  0.64499461  0.87349155    -0.78100
O472        O  0.38321358  0.59145747  0.92007841    -0.78300
C473        C  0.37316171  0.56292916  0.93276808     1.02400
O474        O  0.36003507  0.49926759  0.85617928    -0.85600
O475        O  0.29140159  0.52162575  0.83239706    -0.82600
C476        C  0.28548899  0.53901341  0.80668703     0.97900
O477        O  0.29644041  0.57282449  0.80534909    -0.82700
O478        O  0.34614664  0.62616677  0.81696865    -0.85300
C479        C  0.36948353  0.60396860  0.81147528     1.02400
O480        O  0.38873756  0.58250318  0.83297412    -0.78100
O481        O  0.40445081  0.53180144  0.88438060    -0.78200
C482        C  0.39220779  0.50105562  0.86965129     1.02300
Cr483      Cr  0.32761000  0.53096600  0.87334499     1.93700
Cr484      Cr  0.31217553  0.61082446  0.83924113     1.93200
Cr485      Cr  0.38635579  0.58696102  0.87676562     1.39100
O486        O  0.34154291  0.57633345  0.86315726    -1.23300
O487        O  0.38955846  0.53071861  0.57891742    -0.85600
O488        O  0.45711106  0.54880998  0.60676063    -0.82600
C489        C  0.48077164  0.57218240  0.62038693     0.97900
O490        O  0.47588114  0.59759880  0.63964509    -0.82700
O491        O  0.41878950  0.65236167  0.62587496    -0.85300
C492        C  0.38868135  0.66645324  0.62286453     1.02400
O493        O  0.36502186  0.64373204  0.62430031    -0.78100
O494        O  0.36501530  0.58971703  0.57577608    -0.78300
C495        C  0.37599979  0.56061329  0.56296002     1.02400
O496        O  0.38671765  0.49774394  0.63774845    -0.85600
O497        O  0.45538223  0.51739776  0.66430854    -0.82600
C498        C  0.46443402  0.53755763  0.68916842     0.97900
O499        O  0.45476978  0.57264936  0.68990490    -0.82700
O500        O  0.40158706  0.62354719  0.67991294    -0.85300
C501        C  0.37825039  0.60208372  0.68463563     1.02400
O502        O  0.35889647  0.58134197  0.66257520    -0.78100
O503        O  0.34293695  0.53107243  0.60891715    -0.78200
C504        C  0.35481649  0.49975940  0.62287583     1.02300
Cr505      Cr  0.42088127  0.52743132  0.62281561     1.93700
Cr506      Cr  0.43527485  0.60899173  0.65625579     1.93200
Cr507      Cr  0.36133705  0.58565091  0.61890642     1.39100
O508        O  0.40653450  0.57397677  0.63269121    -1.23300
O509        O  0.11524827  0.41747068  0.58157522    -0.85600
O510        O  0.13365735  0.34574401  0.60967276    -0.82600
C511        C  0.15225162  0.32017197  0.62719993     0.97900
O512        O  0.17936004  0.33061374  0.64825542    -0.82700
O513        O  0.22857545  0.38064184  0.63147260    -0.85300
C514        C  0.24127583  0.41275264  0.62638588     1.02400
O515        O  0.22689474  0.44508080  0.62992833    -0.78100
O516        O  0.16567154  0.44419367  0.58381818    -0.78300
C517        C  0.13639301  0.43137670  0.56831134     1.02400
O518        O  0.10547801  0.44600412  0.64139253    -0.85600
O519        O  0.12496480  0.37563846  0.66768915    -0.82600
C520        C  0.14797245  0.37898537  0.69406217     0.97900
O521        O  0.17930308  0.38495956  0.69581132    -0.82700
O522        O  0.22922505  0.42791463  0.68459431    -0.85300
C523        C  0.21706830  0.46033165  0.69109315     1.02400
O524        O  0.19131084  0.47653469  0.67151689    -0.78100
O525        O  0.13165098  0.48714355  0.62030874    -0.78200
C526        C  0.10769565  0.47984864  0.63187388     1.02300
Cr527      Cr  0.12335386  0.39749251  0.62578498     1.93700
Cr528      Cr  0.20132954  0.38285871  0.66239388     1.93200
Cr529      Cr  0.17800863  0.45945927  0.62747162     1.39100
O530        O  0.16735897  0.41254127  0.63794717    -1.23300
O531        O  0.13871095  0.42705805  0.92364109    -0.85600
O532        O  0.12242052  0.35734175  0.89301456    -0.82600
C533        C  0.10482444  0.33244095  0.87436225     0.97900
O534        O  0.07949595  0.34363426  0.85173851    -0.82700
O535        O  0.02830636  0.39224524  0.86768815    -0.85300
C536        C  0.01365151  0.42361175  0.87327959     1.02400
O537        O  0.02726383  0.45649155  0.87234308    -0.78100
O538        O  0.08687102  0.45325868  0.92073285    -0.78300
C539        C  0.11565418  0.43839522  0.93632986     1.02400
O540        O  0.15177426  0.45715744  0.86715236    -0.85600
O541        O  0.13483955  0.38706326  0.83744827    -0.82600
C542        C  0.11300164  0.39033348  0.81044262     0.97900
O543        O  0.08153604  0.39908714  0.80716292    -0.82700
O544        O  0.02949680  0.44216994  0.81820322    -0.85300
C545        C  0.04178653  0.47419066  0.81311400     1.02400
O546        O  0.06549814  0.49055008  0.83447884    -0.78100
O547        O  0.12282235  0.49792462  0.88823829    -0.78200
C548        C  0.14829033  0.49049101  0.87814279     1.02300
Cr549      Cr  0.13347624  0.40860378  0.87935756     1.93700
Cr550      Cr  0.05729041  0.39617894  0.83882367     1.93200
Cr551      Cr  0.07661964  0.47110155  0.87782777     1.39100
O552        O  0.08938196  0.42474559  0.86576623    -1.23300
O553        O  0.38524353  0.92850422  0.67797190    -0.85600
O554        O  0.37734931  0.85861596  0.64407723    -0.82600
C555        C  0.35716229  0.83398867  0.62692125     0.97900
O556        O  0.32969164  0.84531403  0.60663137    -0.82700
O557        O  0.27616968  0.89229909  0.61873617    -0.85300
C558        C  0.25981804  0.92317979  0.62242514     1.02400
O559        O  0.27367633  0.95602039  0.62335035    -0.78100
O560        O  0.33165152  0.94947488  0.67412374    -0.78300
C561        C  0.36115088  0.93679534  0.69037259     1.02400
O562        O  0.39828666  0.96632188  0.62374405    -0.85600
O563        O  0.38798746  0.89755050  0.59199182    -0.82600
C564        C  0.36581023  0.89644928  0.56520868     0.97900
O565        O  0.33360401  0.89908445  0.56162506    -0.82700
O566        O  0.28092033  0.94261978  0.56973831    -0.85300
C567        C  0.29109693  0.97700128  0.56776439     1.02400
O568        O  0.31318424  0.99351770  0.59045487    -0.78100
O569        O  0.36764078  0.00071602  0.64715925    -0.78200
C570        C  0.39292036  0.99792776  0.63636754     1.02300
Cr571      Cr  0.38344619  0.91398079  0.63358753     1.93700
Cr572      Cr  0.30773958  0.89697262  0.59203070     1.93200
Cr573      Cr  0.32300387  0.97111526  0.63261820     1.39100
O574        O  0.33832059  0.92649192  0.61963825    -1.23300
O575        O  0.36379119  0.92806476  0.83774974    -0.85600
O576        O  0.38267092  0.85645907  0.86473983    -0.82600
C577        C  0.40168060  0.83044339  0.88129391     0.97900
O578        O  0.42942501  0.84034771  0.90200800    -0.82700
O579        O  0.47807255  0.89131619  0.88488069    -0.85300
C580        C  0.49097750  0.92360332  0.88048098     1.02400
O581        O  0.47630610  0.95577851  0.88400606    -0.78100
O582        O  0.41440597  0.95301803  0.83842105    -0.78300
C583        C  0.38527495  0.93883832  0.82371862     1.02400
O584        O  0.35669842  0.95606894  0.89836394    -0.85600
O585        O  0.37619862  0.88555591  0.92348671    -0.82600
C586        C  0.39992302  0.88887077  0.94934441     0.97900
O587        O  0.43103206  0.89445467  0.95044010    -0.82700
O588        O  0.47928482  0.93821033  0.93824953    -0.85300
C589        C  0.46629779  0.96934746  0.94617347     1.02400
O590        O  0.44111902  0.98654967  0.92649739    -0.78100
O591        O  0.38072538  0.99679008  0.87511211    -0.78200
C592        C  0.35790656  0.98966611  0.88807343     1.02300
Cr593      Cr  0.37327163  0.90781496  0.88171959     1.93700
Cr594      Cr  0.45167407  0.89279509  0.91635903     1.93200
Cr595      Cr  0.42737090  0.96957515  0.88202129     1.39100
O596        O  0.41726110  0.92259380  0.89275264    -1.23300
O597        O  0.08661296  0.04562159  0.67632433    -0.85600
O598        O  0.02314303  0.04099857  0.63378507    -0.82600
C599        C  0.00883458  0.07409011  0.63500599     0.97900
O600        O  0.02193988  0.10492233  0.62824895    -0.82700
O601        O  0.06872411  0.15128786  0.60583545    -0.85300
C602        C  0.09670612  0.16212000  0.62565677     1.02400
O603        O  0.11615191  0.13694692  0.64292205    -0.78100
O604        O  0.13677574  0.06751207  0.67308638    -0.78300
C605        C  0.11629037  0.05956624  0.68897538     1.02400
O606        O  0.11686012  0.99647537  0.63956437    -0.85600
O607        O  0.05368071  0.00313868  0.59104612    -0.82600
C608        C  0.02722146  0.01875081  0.57180448     0.97900
O609        O  0.01666437  0.05251043  0.57735951    -0.82700
O610        O  0.06388769  0.09303734  0.55957703    -0.85300
C611        C  0.09403414  0.10034741  0.55867807     1.02400
O612        O  0.11905821  0.10375938  0.58386021    -0.78100
O613        O  0.13918344  0.03383263  0.61232961    -0.78200
C614        C  0.13808657  0.00119851  0.62438480     1.02300
Cr615      Cr  0.07095227  0.02493987  0.63394855     1.93700
Cr616      Cr  0.04573840  0.09864223  0.59525111     1.93200
Cr617      Cr  0.12448422  0.08420683  0.62757001     1.39100
O618        O  0.08059141  0.06989841  0.61927959    -1.23300
O619        O  0.14581334  0.03357889  0.83685410    -0.85600
O620        O  0.21040773  0.05749046  0.86918431    -0.82600
C621        C  0.23476826  0.07489007  0.88872066     0.97900
O622        O  0.22869705  0.09515301  0.91040951    -0.82700
O623        O  0.17490270  0.15326616  0.88831454    -0.85300
C624        C  0.14443998  0.16809127  0.87966384     1.02400
O625        O  0.11843084  0.14716742  0.87796675    -0.78100
O626        O  0.12055536  0.09202598  0.83279507    -0.78300
C627        C  0.13312428  0.06357967  0.82077245     1.02400
O628        O  0.13813426  0.99924415  0.89322771    -0.85600
O629        O  0.20584822  0.02213904  0.92524313    -0.82600
C630        C  0.20830041  0.03914854  0.95108940     0.97900
O631        O  0.19319809  0.07157801  0.95200397    -0.82700
O632        O  0.14505658  0.12971776  0.93507430    -0.85300
C633        C  0.12090376  0.10889404  0.93842762     1.02400
O634        O  0.10430408  0.08685662  0.91601366    -0.78100
O635        O  0.09494369  0.03473488  0.86491745    -0.78200
C636        C  0.10632827  0.00260059  0.87784820     1.02300
Cr637      Cr  0.17366652  0.03146952  0.88202364     1.93700
Cr638      Cr  0.18352754  0.11007251  0.91889469     1.93200
Cr639      Cr  0.11256966  0.08928544  0.87420587     1.39100
O640        O  0.15687962  0.07681718  0.89163350    -1.23300
C641        C  0.12582187  0.06630779  0.72295676    -0.00400
C642        C  0.15141256  0.04255330  0.74300481    -0.12300
C643        C  0.15478932  0.04154626  0.77499905     0.01800
C644        C  0.13214267  0.06480056  0.78739544    -0.00500
C645        C  0.10792772  0.09012996  0.76733363    -0.12200
C646        C  0.10447875  0.09082836  0.73548323     0.01700
H647        H  0.16756620  0.02333960  0.73344464     0.14700
H648        H  0.09071158  0.10849619  0.77627515     0.14700
C649        C  0.07799570  0.11625561  0.71581878     0.36400
C650        C  0.18164182  0.01618815  0.79425828     0.36300
N651        N  0.05678320  0.13663513  0.70010043    -0.44000
N652        N  0.20323856  0.99581095  0.80951874    -0.44000
C653        C  0.09974120  0.10481658  0.52746991    -0.00400
C654        C  0.13204652  0.11773857  0.52594526    -0.12300
C655        C  0.13858101  0.12157023  0.99716756     0.01800
C656        C  0.11329703  0.11012617  0.96894084    -0.00500
C657        C  0.08071487  0.09836264  0.97031085    -0.12200
C658        C  0.07360009  0.09636154  0.49889468     0.01700
H659        H  0.15213401  0.12554998  0.54725719     0.14700
H660        H  0.06067391  0.09073734  0.94889227     0.14700
C661        C  0.03818243  0.08770492  0.49726533     0.36400
C662        C  0.17209296  0.13667559  0.99791734     0.36300
N663        N  0.00940728  0.08187827  0.49536356    -0.44000
N664        N  0.19886442  0.14910284  0.99861053    -0.44000
C665        C  0.48090694  0.98389758  0.97867377    -0.00400
C666        C  0.00812067  0.95843617  0.99747322    -0.12300
C667        C  0.02296258  0.96818420  0.52898821     0.01800
C668        C  0.00850254  0.99970505  0.54189289    -0.00500
C669        C  0.47959955  0.02564507  0.52257280    -0.12200
C670        C  0.46534592  0.01475770  0.99139844     0.01700
H671        H  0.02013302  0.93456591  0.98789496     0.14700
H672        H  0.46750589  0.04987438  0.53163597     0.14700
C673        C  0.43548073  0.03702028  0.97302705     0.40400
C674        C  0.05324199  0.94608202  0.54679714     0.36300
N675        N  0.41191510  0.05542148  0.95835651    -0.44000
N676        N  0.07730171  0.92806576  0.56106671    -0.44000
C677        C  0.33127068  0.01965876  0.89002485    -0.00400
C678        C  0.31166552  0.03907443  0.86289341    -0.12300
C679        C  0.28135368  0.06084707  0.86240730     0.01800
C680        C  0.27104433  0.06455009  0.88968200    -0.00500
C681        C  0.29277444  0.04865050  0.91750289    -0.12200
C682        C  0.32216566  0.02563917  0.91775160     0.01700
H683        H  0.31854097  0.03484915  0.84147302     0.14700
H684        H  0.28494190  0.05097671  0.93857524     0.14700
C685        C  0.34148811  0.00677211  0.94641746     0.36400
C686        C  0.26042361  0.07786819  0.83351081     0.36300
N687        N  0.35688695  0.99155347  0.96935660    -0.44000
N688        N  0.24356465  0.09167706  0.81044626    -0.44000
C689        C  0.02352007  0.92331611  0.87412229    -0.00400
C690        C  0.02395827  0.94322878  0.84727008    -0.12300
C691        C  0.05232970  0.96628122  0.84708692     0.01800
C692        C  0.08125216  0.96983912  0.87428825    -0.00500
C693        C  0.08293419  0.94546261  0.89958430    -0.12200
C694        C  0.05427009  0.92242036  0.89968274     0.01700
H695        H  0.50193976  0.94944836  0.82880870     0.14700
H696        H  0.10509794  0.94718812  0.92036493     0.14700
C697        C  0.05519356  0.90208568  0.92776980     0.36400
C698        C  0.04991156  0.98810687  0.81925384     0.36300
N699        N  0.05573496  0.88574726  0.95022173    -0.44000
N700        N  0.04792343  0.00573900  0.79703558    -0.44000
C701        C  0.23072854  0.02294110  0.98086838    -0.00400
C702        C  0.23012137  0.04196023  0.00883589    -0.12300
C703        C  0.25231717  0.02952397  0.53738378     0.01800
C704        C  0.27476794  0.99713663  0.53861677    -0.00500
C705        C  0.27571717  0.97801624  0.51103572    -0.12200
C706        C  0.25410843  0.99087071  0.98233081     0.01700
H707        H  0.21217011  0.06624570  0.00842303     0.14700
H708        H  0.29249735  0.95226524  0.51224422     0.14700
C709        C  0.25609210  0.96916045  0.95503754     0.36400
C710        C  0.24873290  0.04815519  0.56538497     0.36300
N711        N  0.25767275  0.95150783  0.93327644    -0.44000
N712        N  0.24567496  0.06285218  0.58782280    -0.44000
C713        C  0.37684407  0.89187858  0.53681704    -0.00400
C714        C  0.35406601  0.87309731  0.51074202    -0.12300
C715        C  0.36134796  0.87068601  0.98227026     0.01800
C716        C  0.39173560  0.88779505  0.97927620    -0.00500
C717        C  0.41476467  0.90621703  0.00551552    -0.12200
C718        C  0.40775353  0.90807280  0.53413553     0.01700
H719        H  0.33030986  0.86028012  0.51257934     0.14700
H720        H  0.43804028  0.92009102  0.00356123     0.14700
C721        C  0.43174693  0.92901920  0.55955591     0.36400
C722        C  0.33715957  0.85022373  0.95674027     0.36300
N723        N  0.45113207  0.94586496  0.57975094    -0.44000
N724        N  0.31781022  0.83378488  0.93627276    -0.44000
C725        C  0.37720978  0.93484420  0.78958228    -0.00400
C726        C  0.40474542  0.92439186  0.77761940    -0.12300
C727        C  0.40021380  0.92357730  0.74559686     0.01800
C728        C  0.36731568  0.93352268  0.72457201    -0.00500
C729        C  0.33936592  0.94238968  0.73669811    -0.12200
C730        C  0.34405017  0.94327826  0.76880204     0.01700
H731        H  0.43028499  0.91738745  0.79351766     0.14700
H732        H  0.31379495  0.94988144  0.72114930     0.14700
C733        C  0.31507980  0.95565086  0.77968553     0.36400
C734        C  0.43019438  0.91342178  0.73546439     0.36300
N735        N  0.29183038  0.96585936  0.78824682    -0.44000
N736        N  0.45434304  0.90534547  0.72750779    -0.44000
C737        C  0.47350309  0.07931107  0.63963556    -0.00400
C738        C  0.47079585  0.06357293  0.66748671    -0.12300
C739        C  0.44222237  0.04049091  0.66752219     0.01800
C740        C  0.41699948  0.03103417  0.63908556    -0.00500
C741        C  0.41757370  0.05039767  0.61203601    -0.12200
C742        C  0.44489335  0.07553894  0.61245587     0.01700
H743        H  0.99234065  0.05903930  0.68726383     0.14700
H744        H  0.39760090  0.04445868  0.59030331     0.14700
C745        C  0.44489247  0.09403495  0.58387602     0.36400
C746        C  0.44059933  0.02459249  0.69655808     0.36300
N747        N  0.44478347  0.10938560  0.56113375    -0.44000
N748        N  0.43897140  0.01237156  0.71989002    -0.44000
C749        C  0.22263079  0.92432246  0.62069125    -0.00400
C750        C  0.20010384  0.93987515  0.59308343    -0.12300
C751        C  0.17084514  0.96273867  0.59341502     0.01800
C752        C  0.16306168  0.96947827  0.62166702    -0.00500
C753        C  0.18273708  0.94921069  0.64840263    -0.12200
C754        C  0.21259943  0.92692555  0.64807944     0.01700
H755        H  0.20772630  0.93826340  0.57192760     0.14700
H756        H  0.17665663  0.95352101  0.67011900     0.14700
C757        C  0.23435782  0.90974115  0.67656903     0.36400
C758        C  0.15055773  0.98112955  0.56483945     0.36300
N759        N  0.25187354  0.89552525  0.69919015    -0.44000
N760        N  0.13428682  0.99598211  0.54202252    -0.44000
C761        C  0.13813082  0.21074054  0.87573530    -0.00400
C762        C  0.15525003  0.23594656  0.90022284    -0.12300
C763        C  0.14430097  0.27523018  0.90113901     0.01800
C764        C  0.11569461  0.29016537  0.87680649    -0.00500
C765        C  0.09923822  0.26476091  0.85200363    -0.12200
C766        C  0.11000556  0.22555990  0.85137237     0.01700
H767        H  0.17619070  0.22433479  0.91961003     0.14700
H768        H  0.07778999  0.27551180  0.83268737     0.14700
C769        C  0.09164728  0.20097057  0.82542229     0.36400
C770        C  0.16254666  0.29886186  0.92774399     0.36300
N771        N  0.07687704  0.18132874  0.80462742    -0.44000
N772        N  0.17724169  0.31764060  0.94914061    -0.44000
C773        C  0.13977342  0.27860106  0.62542900    -0.00400
C774        C  0.10649802  0.26960001  0.60518694    -0.12300
C775        C  0.09119657  0.23293487  0.60560759     0.01800
C776        C  0.10912591  0.20360926  0.62670417    -0.00500
C777        C  0.14237354  0.21263061  0.64688998    -0.12200
C778        C  0.15771838  0.24914160  0.64640101     0.01700
H779        H  0.09182218  0.29164146  0.58919158     0.14700
H780        H  0.15704202  0.19069779  0.66300538     0.14700
C781        C  0.19201840  0.25507838  0.66792703     0.36400
C782        C  0.05704398  0.22657383  0.58395901     0.36300
N783        N  0.21950791  0.25964367  0.68523472    -0.44000
N784        N  0.02967437  0.22149874  0.56658964    -0.44000
C785        C  0.12211371  0.43538665  0.97013504    -0.00400
C786        C  0.13173303  0.46913487  0.98852818    -0.12300
C787        C  0.13444979  0.46865572  0.52024029     0.01800
C788        C  0.12757636  0.43400081  0.53407901    -0.00500
C789        C  0.11703146  0.40048587  0.51538091    -0.12200
C790        C  0.11403088  0.40119618  0.98358478     0.01700
H791        H  0.13670959  0.49597576  0.97791785     0.14700
H792        H  0.11195967  0.37362143  0.52586063     0.14700
C793        C  0.10241884  0.36636636  0.96499826     0.36400
C794        C  0.14378348  0.50462115  0.53799658     0.36300
N795        N  0.09297803  0.33848744  0.95007210    -0.44000
N796        N  0.15119167  0.53345241  0.55219332    -0.44000
C797        C  0.13878893  0.37740099  0.72388205    -0.00400
C798        C  0.16496920  0.38582114  0.75202212    -0.12300
C799        C  0.15764675  0.38946123  0.78048681     0.01800
C800        C  0.12345032  0.38367075  0.78163912    -0.00500
C801        C  0.09747409  0.37389776  0.75379632    -0.12200
C802        C  0.10462764  0.37103811  0.72519066     0.01700
H803        H  0.19132716  0.39133678  0.75179720     0.14700
H804        H  0.07097026  0.36928889  0.75417602     0.14700
C805        C  0.07598110  0.36276842  0.69769732     0.36400
C806        C  0.18522606  0.40207768  0.80749984     0.36300
N807        N  0.05285196  0.35635243  0.67573678    -0.44000
N808        N  0.20732892  0.41255005  0.82899984    -0.44000
C809        C  0.36609279  0.79097597  0.62840258    -0.00400
C810        C  0.33977176  0.76480230  0.61292929    -0.12300
C811        C  0.34695897  0.72493392  0.60928275     0.01800
C812        C  0.38125961  0.70959207  0.62180899    -0.00500
C813        C  0.40775513  0.73552471  0.63721306    -0.12200
C814        C  0.40063191  0.77575556  0.64049728     0.01700
H815        H  0.31324170  0.77566415  0.60284843     0.14700
H816        H  0.43413612  0.72421820  0.64727205     0.14700
C817        C  0.42965713  0.80054689  0.65545856     0.36400
C818        C  0.31857476  0.70082930  0.59152723     0.36300
N819        N  0.45320497  0.82008108  0.66739533    -0.44000
N820        N  0.29575223  0.68175901  0.57714805    -0.44000
C821        C  0.48696829  0.52080727  0.71851335    -0.00400
C822        C  0.50184967  0.54684703  0.74347737    -0.12300
C823        C  0.02452918  0.53166758  0.77651224     0.01800
C824        C  0.02715690  0.49106190  0.78195570    -0.00500
C825        C  0.01280590  0.46482863  0.75710921    -0.12200
C826        C  0.49325158  0.48014065  0.72285408     0.01700
H827        H  0.49823246  0.57826954  0.74040248     0.14700
H828        H  0.01553622  0.43342926  0.76084104     0.14700
C829        C  0.48035663  0.45155364  0.69822425     0.36400
C830        C  0.03943420  0.56004005  0.80080471     0.36300
N831        N  0.47024743  0.42849086  0.67857167    -0.44000
N832        N  0.05137512  0.58287122  0.82020140    -0.44000
C833        C  0.27494385  0.41602754  0.61964264    -0.00400
C834        C  0.30531199  0.41638317  0.64531219    -0.12300
C835        C  0.33329997  0.44092406  0.64596989     0.01800
C836        C  0.33080164  0.46619336  0.62079031    -0.00500
C837        C  0.30248354  0.46167740  0.59358642    -0.12200
C838        C  0.27512274  0.43637168  0.59268722     0.01700
H839        H  0.30549936  0.40114820  0.66630681     0.14700
H840        H  0.30079321  0.47949497  0.57344664     0.14700
C841        C  0.24562902  0.43457213  0.56483940     0.36400
C842        C  0.36252246  0.44254510  0.67394099     0.36300
N843        N  0.22207297  0.43277184  0.54251253    -0.44000
N844        N  0.38611212  0.44388931  0.69625661    -0.44000
C845        C  0.02155089  0.55829345  0.63084313    -0.00400
C846        C  0.04352230  0.54398833  0.65931230    -0.12300
C847        C  0.07242674  0.51944572  0.66036141     0.01800
C848        C  0.08085756  0.51022337  0.63274239    -0.00500
C849        C  0.06087313  0.52740784  0.60474961    -0.12200
C850        C  0.03100541  0.55047389  0.60347253     0.01700
H851        H  0.03634847  0.54905867  0.68051327     0.14700
H852        H  0.06716863  0.52051111  0.58339098     0.14700
C853        C  0.49318389  0.54442879  0.56118092     0.36400
C854        C  0.09224416  0.50280394  0.68983295     0.36300
N855        N  0.47131729  0.54469995  0.53759953    -0.44000
N856        N  0.10806109  0.48934178  0.71340391    -0.44000
C857        C  0.38969937  0.78857163  0.87871809    -0.00400
C858        C  0.40865356  0.76132178  0.90089589    -0.12300
C859        C  0.39707317  0.72286451  0.90159174     0.01800
C860        C  0.36549581  0.71048447  0.88005878    -0.00500
C861        C  0.34600308  0.73761479  0.85833337    -0.12200
C862        C  0.35772758  0.77606555  0.85728920     0.01700
H863        H  0.43266627  0.77003504  0.91804545     0.14700
H864        H  0.32234137  0.72815420  0.84103300     0.14700
C865        C  0.33645046  0.80141682  0.83337827     0.36400
C866        C  0.41818431  0.69650493  0.92482595     0.36300
N867        N  0.31925688  0.82149991  0.81409611    -0.44000
N868        N  0.43504505  0.67538082  0.94345474    -0.44000
C869        C  0.26611981  0.51932173  0.77743989    -0.00400
C870        C  0.26787727  0.47827812  0.77579261    -0.12300
C871        C  0.25257281  0.45833879  0.74786260     0.01800
C872        C  0.23396323  0.47967869  0.72110773    -0.00500
C873        C  0.23154497  0.52059649  0.72293986    -0.12200
C874        C  0.24778147  0.54060712  0.75054346     0.01700
H875        H  0.28226810  0.46175028  0.79609846     0.14700
H876        H  0.21760305  0.53716662  0.70249913     0.14700
C877        C  0.24499159  0.58293175  0.75018066     0.36400
C878        C  0.25673278  0.41612001  0.74759378     0.36300
N879        N  0.24273821  0.61683033  0.74954138    -0.44000
N880        N  0.26038243  0.38234324  0.74748978    -0.44000
C881        C  0.37504938  0.60144474  0.71671544    -0.00400
C882        C  0.40568190  0.59724756  0.74198017    -0.12300
C883        C  0.40470970  0.59757987  0.77293342     0.01800
C884        C  0.37261647  0.60299018  0.77925495    -0.00500
C885        C  0.34201988  0.60751169  0.75393000    -0.12200
C886        C  0.34294772  0.60645749  0.72296108     0.01700
H887        H  0.43068042  0.59371455  0.73752857     0.14700
H888        H  0.31710111  0.61179981  0.75833051     0.14700
C889        C  0.31094861  0.61258766  0.69810486     0.36400
C890        C  0.43709136  0.59416525  0.79777267     0.36300
N891        N  0.28539526  0.61772165  0.67809929    -0.44000
N892        N  0.46293478  0.59163318  0.81785133    -0.44000
C893        C  0.37552029  0.56380305  0.96640215    -0.00400
C894        C  0.37985960  0.52804830  0.98215698    -0.12300
C895        C  0.37920475  0.52608553  0.51312430     0.01800
C896        C  0.37379067  0.56076714  0.52919517    -0.00500
C897        C  0.36885771  0.59652930  0.51315841    -0.12200
C898        C  0.36999364  0.59839664  0.98223066     0.01700
H899        H  0.38367761  0.50117629  0.97021879     0.14700
H900        H  0.36474989  0.62339697  0.52492343     0.14700
C901        C  0.36334050  0.63579902  0.96684017     0.36400
C902        C  0.38410079  0.48782560  0.52729181     0.36300
N903        N  0.35778473  0.66577939  0.95449929    -0.44000
N904        N  0.38825096  0.45722370  0.53869388    -0.44000
C905        C  0.41643687  0.46778770  0.86969436    -0.00400
C906        C  0.44123961  0.45828038  0.89816251    -0.12300
C907        C  0.47177033  0.43726143  0.89891572     0.01800
C908        C  0.47747412  0.42481218  0.87084819    -0.00500
C909        C  0.45046354  0.42946464  0.84276712    -0.12200
C910        C  0.42015187  0.45130713  0.84188270     0.01700
H911        H  0.43833344  0.47059171  0.91971621     0.14700
H912        H  0.45511863  0.42081504  0.82097070     0.14700
C913        C  0.39610320  0.46127355  0.81193931     0.36400
C914        C  0.00293788  0.44207692  0.93362737     0.36300
N915        N  0.37706440  0.46951064  0.78789885    -0.44000
N916        N  0.02552420  0.44215883  0.95673067    -0.44000
C917        C  0.23310964  0.56520138  0.87847801    -0.00400
C918        C  0.23216098  0.54721893  0.90618678    -0.12300
C919        C  0.20377569  0.52452136  0.90705421     0.01800
C920        C  0.17511511  0.52019489  0.88007536    -0.00500
C921        C  0.17452290  0.54064394  0.85321943    -0.12200
C922        C  0.20306334  0.56297796  0.85213671     0.01700
H923        H  0.25488795  0.54821441  0.92657721     0.14700
H924        H  0.15256893  0.53718425  0.83240287     0.14700
C925        C  0.20195818  0.57959046  0.82261678     0.36400
C926        C  0.20605647  0.50311882  0.93503498     0.36300
N927        N  0.20078757  0.59268285  0.79879266    -0.44000
N928        N  0.20812146  0.48578787  0.95741054    -0.44000
O929        O  0.85635906  0.53382778  0.41801483    -0.85600
O930        O  0.79063323  0.55867070  0.38898451    -0.82600
C931        C  0.76534960  0.57766808  0.37161152     0.97900
O932        O  0.76987615  0.59937067  0.35067054    -0.82700
O933        O  0.82515940  0.65463107  0.37080740    -0.85300
C934        C  0.85567375  0.66784347  0.37737877     1.02400
O935        O  0.88069815  0.64534712  0.37634916    -0.78100
O936        O  0.88082809  0.59187675  0.42201900    -0.78300
C937        C  0.87007034  0.56351457  0.43429989     1.02400
O938        O  0.85995271  0.49876698  0.35900588    -0.85600
O939        O  0.79201475  0.52311985  0.33076330    -0.82600
C940        C  0.78815450  0.54085667  0.30537739     0.97900
O941        O  0.80042833  0.57412675  0.30498018    -0.82700
O942        O  0.84985866  0.62750325  0.31998819    -0.85300
C943        C  0.87207880  0.60363949  0.31470285     1.02400
O944        O  0.89007979  0.58157006  0.33628089    -0.78100
O945        O  0.90346143  0.53193664  0.38794219    -0.78200
C946        C  0.89186008  0.50061503  0.37375686     1.02300
Cr947      Cr  0.82586674  0.53191717  0.37338183     1.93700
Cr948      Cr  0.81331766  0.61160354  0.33910208     1.93200
Cr949      Cr  0.88583052  0.58709181  0.37947228     1.39100
O950        O  0.84118433  0.57686112  0.36414904    -1.23300
O951        O  0.89498508  0.52919032  0.08203921    -0.85600
O952        O  0.96031724  0.55439059  0.11102966    -0.82600
C953        C  0.98545507  0.57133970  0.12999909     0.97900
O954        O  0.98016672  0.59309484  0.15136541    -0.82700
O955        O  0.92280461  0.65004118  0.13248234    -0.85300
C956        C  0.89186172  0.66359090  0.12641295     1.02400
O957        O  0.86738241  0.64077539  0.12596147    -0.78100
O958        O  0.86865008  0.58690148  0.07893991    -0.78300
C959        C  0.88050331  0.55865076  0.06604782     1.02400
O960        O  0.89313094  0.49390514  0.14006817    -0.85600
O961        O  0.96092487  0.51823635  0.16815853    -0.82600
C962        C  0.96499289  0.53545978  0.19416405     0.97900
O963        O  0.95018455  0.56781387  0.19603388    -0.82700
O964        O  0.89879947  0.62249128  0.18185580    -0.85300
C965        C  0.87623806  0.60020170  0.18672520     1.02400
O966        O  0.85927266  0.57763998  0.16484789    -0.78100
O967        O  0.84796662  0.52703212  0.11234035    -0.78200
C968        C  0.86095258  0.49575549  0.12587098     1.02300
Cr969      Cr  0.92596924  0.52721358  0.12620364     1.93700
Cr970      Cr  0.93598120  0.60608683  0.16281551     1.93200
Cr971      Cr  0.86393772  0.58237388  0.12165870     1.39100
O972        O  0.90904378  0.57187920  0.13678149    -1.23300
O973        O  0.61585610  0.42679212  0.07636943    -0.85600
O974        O  0.63101926  0.35567539  0.10603038    -0.82600
C975        C  0.64895943  0.33006900  0.12395012     0.97900
O976        O  0.67553354  0.34031140  0.14561924    -0.82700
O977        O  0.72701266  0.38675406  0.12904693    -0.85300
C978        C  0.74160942  0.41774591  0.12432016     1.02400
O979        O  0.72771296  0.45109417  0.12591905    -0.78100
O980        O  0.66620570  0.45452831  0.07954596    -0.78300
C981        C  0.63727924  0.44107518  0.06364676     1.02400
O982        O  0.60319665  0.45890733  0.13315803    -0.85600
O983        O  0.62129632  0.38927319  0.16278742    -0.82600
C984        C  0.64417015  0.39268947  0.18926765     0.97900
O985        O  0.67586103  0.39735451  0.19170040    -0.82700
O986        O  0.72901059  0.43532462  0.18072404    -0.85300
C987        C  0.71882366  0.46858660  0.18728565     1.02400
O988        O  0.69374018  0.48608293  0.16785865    -0.78100
O989        O  0.63435977  0.49959440  0.11661198    -0.78200
C990        C  0.60756016  0.49256004  0.12434152     1.02300
Cr991      Cr  0.62175845  0.40889726  0.12055793     1.93700
Cr992      Cr  0.69888202  0.39197847  0.15901315     1.93200
Cr993      Cr  0.67935590  0.46896168  0.12357391     1.39100
O994        O  0.66635217  0.42273924  0.13372886    -1.23300
O995        O  0.63870097  0.43297268  0.41807232    -0.85600
O996        O  0.62467072  0.36193529  0.38908855    -0.82600
C997        C  0.60706747  0.33610011  0.37149027     0.97900
O998        O  0.58076288  0.34579174  0.34921532    -0.82700
O999        O  0.52892974  0.39282262  0.36450925    -0.85300
C1000       C  0.51311849  0.42377383  0.36897647     1.02400
O1001       O  0.52583093  0.45697849  0.36769932    -0.78100
O1002       O  0.58569823  0.45469335  0.41589635    -0.78300
C1003       C  0.61553082  0.44226671  0.43123975     1.02400
O1004       O  0.64802857  0.46245769  0.35957505    -0.85600
O1005       O  0.63433037  0.39099698  0.33230586    -0.82600
C1006       C  0.61173404  0.39206327  0.30561131     0.97900
O1007       O  0.58000392  0.39873292  0.30243321    -0.82700
O1008       O  0.52799786  0.44182915  0.31355722    -0.85300
C1009       C  0.53898187  0.47476728  0.30862709     1.02400
O1010       O  0.56243830  0.49186929  0.32974760    -0.78100
O1011       O  0.62000837  0.50104669  0.38302904    -0.78200
C1012       C  0.64447594  0.49521209  0.37136399     1.02300
Cr1013     Cr  0.63302671  0.41329741  0.37389341     1.93700
Cr1014     Cr  0.55689676  0.39684034  0.33495028     1.93200
Cr1015     Cr  0.57458118  0.47277826  0.37303101     1.39100
O1016       O  0.58839745  0.42703670  0.36089927    -1.23300
O1017       O  0.88343244  0.92490538  0.17655921    -0.85600
O1018       O  0.87257755  0.85454360  0.14372139    -0.82600
C1019       C  0.85261718  0.82968712  0.12668412     0.97900
O1020       O  0.82505187  0.84095999  0.10629720    -0.82700
O1021       O  0.77248780  0.89156336  0.11876315    -0.85300
C1022       C  0.75744462  0.92353053  0.12250451     1.02400
O1023       O  0.77239337  0.95550162  0.12269480    -0.78100
O1024       O  0.83046204  0.94774298  0.17304963    -0.78300
C1025       C  0.85991201  0.93484534  0.18922756     1.02400
O1026       O  0.89662450  0.95996257  0.12146985    -0.85600
O1027       O  0.88377219  0.89041094  0.09051649    -0.82600
C1028       C  0.86152387  0.88978605  0.06372293     0.97900
O1029       O  0.82938084  0.89360109  0.06034960    -0.82700
O1030       O  0.77826595  0.93996196  0.06914245    -0.85300
C1031       C  0.78970805  0.97357537  0.06640936     1.02400
O1032       O  0.81266934  0.98950491  0.08879170    -0.78100
O1033       O  0.86746525  0.99595751  0.14527843    -0.78200
C1034       C  0.89247714  0.99188415  0.13430941     1.02300
Cr1035     Cr  0.88040583  0.90871847  0.13217508     1.93700
Cr1036     Cr  0.80398349  0.89354871  0.09147773     1.93200
Cr1037     Cr  0.82201079  0.96825668  0.13125168     1.39100
O1038       O  0.83566733  0.92259278  0.11855912    -1.23300
O1039       O  0.86312112  0.92560096  0.33626823    -0.85600
O1040       O  0.88262267  0.85406800  0.36339583    -0.82600
C1041       C  0.90060787  0.82831217  0.38102076     0.97900
O1042       O  0.92770184  0.83826342  0.40226357    -0.82700
O1043       O  0.97630427  0.88837804  0.38460510    -0.85300
C1044       C  0.98938555  0.92047706  0.37997832     1.02400
O1045       O  0.97508489  0.95292213  0.38356346    -0.78100
O1046       O  0.91353173  0.95194379  0.33795073    -0.78300
C1047       C  0.88461266  0.93775074  0.32275337     1.02400
O1048       O  0.85385294  0.95290829  0.39588397    -0.85600
O1049       O  0.87387891  0.88233678  0.42168406    -0.82600
C1050       C  0.89701812  0.88557421  0.44796124     0.97900
O1051       O  0.92819528  0.89243272  0.44967282    -0.82700
O1052       O  0.97766980  0.93538540  0.43731188    -0.85300
C1053       C  0.96458673  0.96585517  0.44586200     1.02400
O1054       O  0.93962799  0.98359772  0.42641740    -0.78100
O1055       O  0.87978166  0.99455107  0.37490148    -0.78200
C1056       C  0.85581350  0.98675738  0.38630949     1.02300
Cr1057     Cr  0.87179069  0.90500312  0.38002220     1.93700
Cr1058     Cr  0.94975802  0.89040311  0.41596240     1.93200
Cr1059     Cr  0.92622973  0.96731738  0.38175335     1.39100
O1060       O  0.91567093  0.92023645  0.39195932    -1.23300
O1061       O  0.58686318  0.05361322  0.17718445    -0.85600
O1062       O  0.52350645  0.04823463  0.13411278    -0.82600
C1063       C  0.50895695  0.08103179  0.13576024     0.97900
O1064       O  0.52163372  0.11218504  0.12894935    -0.82700
O1065       O  0.56810085  0.16003353  0.10681222    -0.85300
C1066       C  0.59638661  0.17122927  0.12599936     1.02400
O1067       O  0.61636312  0.14640621  0.14332275    -0.78100
O1068       O  0.63679470  0.07692633  0.17436677    -0.78300
C1069       C  0.61638208  0.06792722  0.19006783     1.02400
O1070       O  0.61762862  0.00506103  0.14071045    -0.85600
O1071       O  0.55502409  0.01154921  0.09143556    -0.82600
C1072       C  0.52872229  0.02699128  0.07183513     0.97900
O1073       O  0.51752000  0.06038275  0.07756425    -0.82700
O1074       O  0.56470089  0.10242307  0.06055541    -0.85300
C1075       C  0.59510565  0.10923547  0.05996790     1.02400
O1076       O  0.62002247  0.11212780  0.08521751    -0.78100
O1077       O  0.64061846  0.04253035  0.11412090    -0.78200
C1078       C  0.63917384  0.00976713  0.12590324     1.02300
Cr1079     Cr  0.57161380  0.03317615  0.13458460     1.93700
Cr1080     Cr  0.54596581  0.10692069  0.09605666     1.93200
Cr1081     Cr  0.62502575  0.09312430  0.12878653     1.39100
O1082       O  0.58109075  0.07846762  0.12019627    -1.23300
O1083       O  0.64432770  0.03826299  0.33736864    -0.85600
O1084       O  0.70967910  0.06124738  0.36722938    -0.82600
C1085       C  0.73503259  0.07777999  0.38616412     0.97900
O1086       O  0.73048798  0.09855633  0.40825647    -0.82700
O1087       O  0.67699362  0.15727249  0.38846482    -0.85300
C1088       C  0.64660004  0.17220566  0.38070275     1.02400
O1089       O  0.62098045  0.15171089  0.38083458    -0.78100
O1090       O  0.62095547  0.09747451  0.33448974    -0.78300
C1091       C  0.63251048  0.06887059  0.32181193     1.02400
O1092       O  0.63944422  0.00389620  0.39459813    -0.85600
O1093       O  0.70804207  0.02570626  0.42415340    -0.82600
C1094       C  0.71198550  0.04246375  0.45033656     0.97900
O1095       O  0.69822554  0.07547699  0.45221998    -0.82700
O1096       O  0.64998432  0.13362129  0.43767241    -0.85300
C1097       C  0.62518154  0.11375253  0.44106885     1.02400
O1098       O  0.60797009  0.09180604  0.41884898    -0.78100
O1099       O  0.59607762  0.03999096  0.36732374    -0.78200
C1100       C  0.60749854  0.00759683  0.37978675     1.02300
Cr1101     Cr  0.67418252  0.03560633  0.38186108     1.93700
Cr1102     Cr  0.68680676  0.11401262  0.41910972     1.93200
Cr1103     Cr  0.61447452  0.09423980  0.37652959     1.39100
O1104       O  0.65876105  0.08106589  0.39262415    -1.23300
C1105       C  0.62600920  0.07369776  0.22417057    -0.00400
C1106       C  0.64995265  0.04780527  0.24369463    -0.12300
C1107       C  0.65298151  0.04601217  0.27557907     0.01800
C1108       C  0.63165075  0.07066750  0.28846111    -0.00500
C1109       C  0.60918572  0.09807614  0.26897874    -0.12200
C1110       C  0.60603790  0.09949091  0.23717194     0.01700
H1111       H  0.66502465  0.02761121  0.23374897     0.14700
H1112       H  0.59309439  0.11760734  0.27831035     0.14700
C1113       C  0.58124420  0.12697538  0.21799346     0.36400
C1114       C  0.67809762  0.01835085  0.29419636     0.36300
N1115       N  0.56140065  0.14899585  0.20261634    -0.44000
N1116       N  0.69831205  0.99617851  0.30898132    -0.44000
C1117       C  0.60152698  0.11345526  0.02905922    -0.00400
C1118       C  0.63431700  0.12558999  0.02811058    -0.12300
C1119       C  0.64172726  0.12789610  0.49966291     0.01800
C1120       C  0.61690670  0.11622264  0.47126798    -0.00500
C1121       C  0.58388638  0.10521513  0.47208543    -0.12200
C1122       C  0.57585229  0.10498007  0.00027506     0.01700
H1123       H  0.65411831  0.13335591  0.04962449     0.14700
H1124       H  0.56418136  0.09738953  0.45050842     0.14700
C1125       C  0.54019755  0.09672637  0.99805538     0.36400
C1126       C  0.67576947  0.14191979  0.50098675     0.36300
N1127       N  0.51125351  0.09114615  0.99564119    -0.44000
N1128       N  0.70295873  0.15364255  0.50227807    -0.44000
C1129       C  0.97870337  0.97853439  0.47873553    -0.00400
C1130       C  0.51026340  0.96432060  0.49815450    -0.12300
C1131       C  0.52534014  0.97578685  0.02925779     0.01800
C1132       C  0.51080218  0.00793845  0.04148893    -0.00500
C1133       C  0.97730878  0.01820728  0.02333820    -0.12200
C1134       C  0.96272120  0.00802144  0.49233987     0.01700
H1135       H  0.52229045  0.93991320  0.48913938     0.14700
H1136       H  0.96521662  0.04179684  0.03302184     0.14700
C1137       C  0.93266817  0.03053558  0.47465589     0.40400
C1138       C  0.55577378  0.95435888  0.04754317     0.36300
N1139       N  0.90899339  0.04923633  0.46057274    -0.44000
N1140       N  0.58000495  0.93690086  0.06216940    -0.44000
C1141       C  0.82900379  0.01673735  0.38745520    -0.00400
C1142       C  0.80947834  0.03512927  0.35981308    -0.12300
C1143       C  0.77979854  0.05824213  0.35896631     0.01800
C1144       C  0.77055721  0.06503799  0.38655183    -0.00500
C1145       C  0.79202889  0.04946286  0.41462007    -0.12200
C1146       C  0.82016887  0.02433898  0.41507852     0.01700
H1147       H  0.81591277  0.02909337  0.33837309     0.14700
H1148       H  0.78464755  0.05352321  0.43582655     0.14700
C1149       C  0.83804278  0.00464649  0.44375855     0.36400
C1150       C  0.75828969  0.07301241  0.32939955     0.36300
N1151       N  0.85206944  0.98855899  0.46666778    -0.44000
N1152       N  0.74097214  0.08470656  0.30568401    -0.44000
C1153       C  0.52523541  0.92690517  0.37490108    -0.00400
C1154       C  0.52538287  0.94798255  0.34848590    -0.12300
C1155       C  0.55349432  0.97166447  0.34871232     0.01800
C1156       C  0.58244359  0.97478580  0.37591856    -0.00500
C1157       C  0.58449688  0.94936817  0.40068588    -0.12200
C1158       C  0.55614083  0.92551415  0.40030713     0.01700
H1159       H  0.00059070  0.94427432  0.32777187     0.14700
H1160       H  0.60681097  0.95057907  0.42137397     0.14700
C1161       C  0.55777665  0.90321654  0.42766422     0.36400
C1162       C  0.55090977  0.99427637  0.32121943     0.36300
N1163       N  0.55912031  0.88518061  0.44953626    -0.44000
N1164       N  0.54884984  0.01247896  0.29926262    -0.44000
C1165       C  0.73417108  0.02459277  0.47937792    -0.00400
C1166       C  0.74620613  0.04884167  0.50603980    -0.12300
C1167       C  0.76570693  0.03361170  0.03468869     0.01800
C1168       C  0.77430415  0.99337155  0.03666025    -0.00500
C1169       C  0.76439817  0.96967644  0.00969289    -0.12200
C1170       C  0.74368865  0.98442864  0.48138336     0.01700
H1171       H  0.73981985  0.07995150  0.50479043     0.14700
H1172       H  0.77134470  0.93864541  0.01108205     0.14700
C1173       C  0.73263265  0.95765862  0.45518079     0.36400
C1174       C  0.77496657  0.05922585  0.06172881     0.36300
N1175       N  0.72381736  0.93614548  0.43422426    -0.44000
N1176       N  0.78235769  0.07977263  0.08337990    -0.44000
C1177       C  0.87268921  0.88506605  0.03520268    -0.00400
C1178       C  0.84909478  0.86917466  0.00812131    -0.12300
C1179       C  0.85608872  0.86824079  0.47946120     0.01800
C1180       C  0.88807983  0.88272436  0.47767552    -0.00500
C1181       C  0.91218358  0.89705301  0.50515243    -0.12200
C1182       C  0.90495068  0.89870462  0.03351543     0.01700
H1183       H  0.82431480  0.85821408  0.00907691     0.14700
H1184       H  0.93684346  0.90861641  0.50441434     0.14700
C1185       C  0.93006971  0.91674678  0.05985334     0.36400
C1186       C  0.83057091  0.85152735  0.45273718     0.36300
N1187       N  0.95034518  0.93136700  0.08075646    -0.44000
N1188       N  0.81010742  0.83803235  0.43137536    -0.44000
C1189       C  0.87685130  0.93510336  0.28860156    -0.00400
C1190       C  0.90462661  0.92594986  0.27661790    -0.12300
C1191       C  0.89994800  0.92480896  0.24458073     0.01800
C1192       C  0.86665129  0.93313984  0.22356094    -0.00500
C1193       C  0.83873927  0.94181812  0.23576131    -0.12200
C1194       C  0.84356362  0.94302674  0.26786578     0.01700
H1195       H  0.93037928  0.91982287  0.29249299     0.14700
H1196       H  0.81298761  0.94860916  0.22023204     0.14700
C1197       C  0.81451199  0.95501296  0.27877263     0.36400
C1198       C  0.93017128  0.91599819  0.23445030     0.36300
N1199       N  0.79117953  0.96495747  0.28731184    -0.44000
N1200       N  0.95461225  0.90919500  0.22659285    -0.44000
C1201       C  0.97357873  0.07303413  0.13860291    -0.00400
C1202       C  0.97089603  0.05665266  0.16616906    -0.12300
C1203       C  0.94267033  0.03293896  0.16578388     0.01800
C1204       C  0.91745181  0.02399570  0.13721092    -0.00500
C1205       C  0.91783832  0.04416850  0.11047000    -0.12200
C1206       C  0.94505046  0.06963650  0.11129700     0.01700
H1207       H  0.49308284  0.06575222  0.18866674     0.14700
H1208       H  0.89772478  0.03880489  0.08871278     0.14700
C1209       C  0.94492207  0.08899355  0.08301773     0.36400
C1210       C  0.94156757  0.01610911  0.19462862     0.36300
N1211       N  0.94456523  0.10494566  0.06045088    -0.44000
N1212       N  0.94080025  0.00345574  0.21807628    -0.44000
C1213       C  0.72049355  0.92726441  0.12162959    -0.00400
C1214       C  0.69823478  0.94350743  0.09413125    -0.12300
C1215       C  0.67061664  0.96903879  0.09479438     0.01800
C1216       C  0.66375215  0.97746974  0.12322949    -0.00500
C1217       C  0.68300272  0.95701092  0.15000607    -0.12200
C1218       C  0.71153414  0.93246996  0.14944969     0.01700
H1219       H  0.70509922  0.94022331  0.07266999     0.14700
H1220       H  0.67761863  0.96266658  0.17189547     0.14700
C1221       C  0.73309926  0.91561153  0.17815099     0.36400
C1222       C  0.65097110  0.98792835  0.06624315     0.36300
N1223       N  0.75026811  0.90184426  0.20111043    -0.44000
N1224       N  0.63526810  0.00309899  0.04337959    -0.44000
C1225       C  0.63991415  0.21448945  0.37505110    -0.00400
C1226       C  0.66112653  0.24160338  0.39550483    -0.12300
C1227       C  0.65093097  0.28124564  0.39551517     0.01800
C1228       C  0.61855350  0.29421350  0.37478584    -0.00500
C1229       C  0.59813056  0.26693837  0.35371495    -0.12200
C1230       C  0.60855739  0.22772531  0.35349178     0.01700
H1231       H  0.68508651  0.23148318  0.41246119     0.14700
H1232       H  0.57376400  0.27621182  0.33691305     0.14700
C1233       C  0.58646738  0.20159207  0.33073515     0.36400
C1234       C  0.67444674  0.30754756  0.41691485     0.36300
N1235       N  0.56869984  0.18080102  0.31245650    -0.44000
N1236       N  0.69345080  0.32857533  0.43396403    -0.44000
C1237       C  0.63651043  0.28854107  0.12193351    -0.00400
C1238       C  0.60066523  0.28119680  0.10873333    -0.12300
C1239       C  0.58666654  0.24399868  0.11032838     0.01800
C1240       C  0.60849949  0.21276289  0.12593861    -0.00500
C1241       C  0.64443127  0.22008768  0.13860100    -0.12200
C1242       C  0.65847978  0.25694054  0.13636522     0.01700
H1243       H  0.58316136  0.30493480  0.09768164     0.14700
H1244       H  0.66211868  0.19644606  0.14953613     0.14700
C1245       C  0.69585434  0.26084174  0.14794019     0.36400
C1246       C  0.54973225  0.23913778  0.09585636     0.36300
N1247       N  0.72584722  0.26377416  0.15692425    -0.44000
N1248       N  0.52013696  0.23538945  0.08405921    -0.44000
C1249       C  0.62310338  0.44029513  0.46522505    -0.00400
C1250       C  0.63457385  0.47417449  0.48296384    -0.12300
C1251       C  0.63685252  0.47602054  0.01474608     0.01800
C1252       C  0.62918159  0.44246039  0.02939456    -0.00500
C1253       C  0.61721160  0.40876046  0.01137370    -0.12200
C1254       C  0.61370273  0.40755003  0.47947606     0.01700
H1255       H  0.64022350  0.50005816  0.47171739     0.14700
H1256       H  0.61131578  0.38284026  0.02241996     0.14700
C1257       C  0.60030419  0.37264804  0.46167312     0.36400
C1258       C  0.64669467  0.51253479  0.03157213     0.36300
N1259       N  0.58948410  0.34466419  0.44744554    -0.44000
N1260       N  0.65433114  0.54189422  0.04494234    -0.44000
C1261       C  0.63453490  0.39220598  0.21854036    -0.00400
C1262       C  0.61729032  0.36006372  0.22578994    -0.12300
C1263       C  0.61081076  0.35831031  0.25479915     0.01800
C1264       C  0.62243802  0.38860259  0.27713484    -0.00500
C1265       C  0.63961719  0.42039402  0.26985952    -0.12200
C1266       C  0.64506658  0.42282120  0.24078609     0.01700
H1267       H  0.60923130  0.33625358  0.20899204     0.14700
H1268       H  0.64703354  0.44465171  0.28638292     0.14700
C1269       C  0.65839017  0.45904418  0.23355849     0.36400
C1270       C  0.59275255  0.32504898  0.26142528     0.36300
N1271       N  0.66804239  0.48915023  0.22858191    -0.44000
N1272       N  0.57840003  0.29830760  0.26680698    -0.44000
C1273       C  0.86278882  0.78675860  0.12842484    -0.00400
C1274       C  0.84164879  0.76060200  0.10653775    -0.12300
C1275       C  0.85165836  0.72118575  0.10426681     0.01800
C1276       C  0.88365719  0.70652986  0.12410266    -0.00500
C1277       C  0.90499866  0.73234793  0.14586666    -0.12200
C1278       C  0.89496796  0.77186195  0.14832753     0.01700
H1279       H  0.81723805  0.77103937  0.09054679     0.14700
H1280       H  0.92913382  0.72123598  0.16188782     0.14700
C1281       C  0.91839951  0.79598579  0.17174620     0.36400
C1282       C  0.82884373  0.69651522  0.08076504     0.36300
N1283       N  0.93733728  0.81510404  0.19059508    -0.44000
N1284       N  0.81061936  0.67678991  0.06188321    -0.44000
C1285       C  0.98834368  0.51900423  0.22312663    -0.00400
C1286       C  0.00519205  0.54525163  0.24720883    -0.12300
C1287       C  0.52008604  0.53263639  0.27289222     0.01800
C1288       C  0.52328794  0.49197094  0.27784959    -0.00500
C1289       C  0.50946119  0.46596653  0.25277806    -0.12200
C1290       C  0.99306251  0.47837122  0.22800239     0.01700
H1291       H  0.00254539  0.57660922  0.24334867     0.14700
H1292       H  0.51257950  0.43454052  0.25623859     0.14700
C1293       C  0.97684391  0.44985866  0.20424687     0.36400
C1294       C  0.53401923  0.56084918  0.29758919     0.36300
N1295       N  0.96388085  0.42688417  0.18531395    -0.44000
N1296       N  0.54512102  0.58357814  0.31729354    -0.44000
C1297       C  0.77735087  0.41833170  0.12137262    -0.00400
C1298       C  0.80516098  0.42108362  0.14921233    -0.12300
C1299       C  0.83525215  0.44242143  0.15061074     0.01800
C1300       C  0.83730253  0.46217674  0.12397059    -0.00500
C1301       C  0.81174485  0.45488981  0.09539805    -0.12200
C1302       C  0.78219404  0.43290608  0.09389275     0.01700
H1303       H  0.80170048  0.41049358  0.17065082     0.14700
H1304       H  0.81358670  0.46886594  0.07449773     0.14700
C1305       C  0.75549655  0.42887423  0.06433057     0.36400
C1306       C  0.86162840  0.44741930  0.18025683     0.36300
N1307       N  0.73431332  0.42544714  0.04052592    -0.44000
N1308       N  0.88286735  0.45166237  0.20393318    -0.44000
C1309       C  0.51639910  0.56455065  0.11703889    -0.00400
C1310       C  0.54563201  0.56794541  0.14362164    -0.12300
C1311       C  0.57705413  0.54758229  0.14548250     0.01800
C1312       C  0.57933921  0.52267686  0.12078420    -0.00500
C1313       C  0.55174484  0.52313273  0.09290110    -0.12200
C1314       C  0.52079077  0.54452260  0.09061955     0.01700
H1315       H  0.54319131  0.58395851  0.16393373     0.14700
H1316       H  0.55379910  0.50537940  0.07325652     0.14700
C1317       C  0.00936989  0.56406000  0.07382442     0.36400
C1318       C  0.60626467  0.55217776  0.17312695     0.36300
N1319       N  0.99198928  0.57472999  0.04979934    -0.44000
N1320       N  0.62970344  0.55702930  0.19513661    -0.44000
C1321       C  0.88797785  0.78708524  0.37949384    -0.00400
C1322       C  0.90378177  0.76191255  0.40452275    -0.12300
C1323       C  0.89145284  0.72402230  0.40575763     0.01800
C1324       C  0.86270749  0.71025764  0.38168390    -0.00500
C1325       C  0.84583211  0.73559367  0.35739783    -0.12200
C1326       C  0.85805755  0.77359397  0.35604101     0.01700
H1327       H  0.92575818  0.77185233  0.42347456     0.14700
H1328       H  0.82415223  0.72490677  0.33847180     0.14700
C1329       C  0.83967020  0.79740289  0.32979848     0.36400
C1330       C  0.90852333  0.69973673  0.43215266     0.36300
N1331       N  0.82481775  0.81641488  0.30874821    -0.44000
N1332       N  0.92197842  0.68034887  0.45339199    -0.44000
C1333       C  0.76927290  0.52281136  0.27530726    -0.00400
C1334       C  0.76910244  0.48189370  0.27261791    -0.12300
C1335       C  0.75342182  0.46356372  0.24406834     0.01800
C1336       C  0.73701156  0.48655473  0.21755070    -0.00500
C1337       C  0.73689752  0.52743446  0.22030524    -0.12200
C1338       C  0.75292851  0.54576040  0.24872952     0.01700
H1339       H  0.78179142  0.46415790  0.29273092     0.14700
H1340       H  0.72431180  0.54516103  0.20015796     0.14700
C1341       C  0.75153252  0.58814880  0.24968246     0.36400
C1342       C  0.75394757  0.42115582  0.24317679     0.36300
N1343       N  0.75040644  0.62209743  0.25025485    -0.44000
N1344       N  0.75457158  0.38719650  0.24261863    -0.44000
C1345       C  0.87192604  0.60112479  0.21870630    -0.00400
C1346       C  0.88874298  0.63124013  0.23939386    -0.12300
C1347       C  0.88992845  0.63181404  0.27079858     0.01800
C1348       C  0.87508785  0.60132468  0.28275065    -0.00500
C1349       C  0.85747678  0.57161385  0.26232391    -0.12200
C1350       C  0.85517996  0.57162850  0.23044471     0.01700
H1351       H  0.90123182  0.65467586  0.23113033     0.14700
H1352       H  0.84451260  0.54905085  0.27107814     0.14700
C1353       C  0.83449160  0.54190733  0.21049125     0.36400
C1354       C  0.90647938  0.66417852  0.29039555     0.36300
N1355       N  0.81714863  0.51843464  0.19470589    -0.44000
N1356       N  0.91961720  0.69016040  0.30611712    -0.44000
C1357       C  0.87395720  0.56379261  0.46810680    -0.00400
C1358       C  0.88557400  0.52934205  0.48479435    -0.12300
C1359       C  0.88770126  0.52684423  0.01632699     0.01800
C1360       C  0.87761999  0.55945230  0.03206941    -0.00500
C1361       C  0.86608659  0.59410445  0.01512514    -0.12200
C1362       C  0.86413138  0.59644832  0.48353455     0.01700
H1363       H  0.89312981  0.50413572  0.47306582     0.14700
H1364       H  0.85845290  0.61950958  0.02654245     0.14700
C1365       C  0.85081499  0.63226054  0.46717642     0.36400
C1366       C  0.90095961  0.49033203  0.03160803     0.36300
N1367       N  0.84007470  0.66095230  0.45408122    -0.44000
N1368       N  0.91186592  0.46113335  0.04379994    -0.44000
C1369       C  0.91682455  0.46710040  0.37598442    -0.00400
C1370       C  0.94396258  0.46322266  0.40405870    -0.12300
C1371       C  0.97462282  0.44226372  0.40522564     0.01800
C1372       C  0.97869381  0.42484289  0.37790421    -0.00500
C1373       C  0.94955980  0.42340130  0.35110229    -0.12200
C1374       C  0.91844130  0.44405265  0.35003503     0.01700
H1375       H  0.94243124  0.47944349  0.42464253     0.14700
H1376       H  0.95237846  0.40992604  0.32990982     0.14700
C1377       C  0.89013619  0.44413821  0.32131344     0.36400
C1378       C  0.49826565  0.43174184  0.42853781     0.36300
N1379       N  0.86736098  0.44376602  0.29833743    -0.44000
N1380       N  0.51985498  0.42844655  0.45211682    -0.44000
C1381       C  0.72991393  0.56894359  0.37352349    -0.00400
C1382       C  0.72765972  0.55180358  0.40106721    -0.12300
C1383       C  0.69886627  0.52960630  0.40121221     0.01800
C1384       C  0.67097904  0.52522409  0.37369497    -0.00500
C1385       C  0.67142887  0.54529739  0.34693245    -0.12200
C1386       C  0.70048198  0.56721126  0.34659626     0.01700
H1387       H  0.74985922  0.55269462  0.42191065     0.14700
H1388       H  0.64998203  0.54184405  0.32571849     0.14700
C1389       C  0.70046256  0.58413252  0.31743407     0.36400
C1390       C  0.70037041  0.50803144  0.42892178     0.36300
N1391       N  0.70014105  0.59761070  0.29394378    -0.44000
N1392       N  0.70197583  0.49043336  0.45106316    -0.44000
O1393       O  0.85666063  0.53378975  0.91800498    -0.85600
O1394       O  0.79092322  0.55863703  0.88913322    -0.82600
C1395       C  0.76565374  0.57770670  0.87182222     0.97900
O1396       O  0.77014234  0.59944478  0.85089345    -0.82700
O1397       O  0.82538824  0.65460537  0.87091028    -0.85300
C1398       C  0.85588509  0.66782090  0.87739985     1.02400
O1399       O  0.88089414  0.64533630  0.87632306    -0.78100
O1400       O  0.88107482  0.59185909  0.92201309    -0.78300
C1401       C  0.87030775  0.56350288  0.93429537     1.02400
O1402       O  0.86005311  0.49882854  0.85888016    -0.85600
O1403       O  0.79209515  0.52316686  0.83081743    -0.82600
C1404       C  0.78817472  0.54093468  0.80543323     0.97900
O1405       O  0.80043550  0.57421132  0.80505380    -0.82700
O1406       O  0.84989323  0.62751187  0.81994988    -0.85300
C1407       C  0.87210014  0.60365332  0.81463719     1.02400
O1408       O  0.89018181  0.58162874  0.83621186    -0.78100
O1409       O  0.90362275  0.53190761  0.88782567    -0.78200
C1410       C  0.89197199  0.50063203  0.87358364     1.02300
Cr1411     Cr  0.82606187  0.53192247  0.87340062     1.93700
Cr1412     Cr  0.81345873  0.61164085  0.83918597     1.93200
Cr1413     Cr  0.88601522  0.58709061  0.87943143     1.39100
O1414       O  0.84135934  0.57687281  0.86416078    -1.23300
O1415       O  0.89496617  0.52907426  0.58204827    -0.85600
O1416       O  0.96043358  0.55410253  0.61092595    -0.82600
C1417       C  0.98556286  0.57120020  0.62980229     0.97900
O1418       O  0.98029611  0.59303378  0.65113938    -0.82700
O1419       O  0.92297242  0.65006197  0.63243738    -0.85300
C1420       C  0.89203531  0.66361427  0.62644167     1.02400
O1421       O  0.86757602  0.64077665  0.62598850    -0.78100
O1422       O  0.86879437  0.58687811  0.57896363    -0.78300
C1423       C  0.88058555  0.55858363  0.56606956     1.02400
O1424       O  0.89316098  0.49397069  0.64017568    -0.85600
O1425       O  0.96106902  0.51811770  0.66807477    -0.82600
C1426       C  0.96524143  0.53539150  0.69406845     0.97900
O1427       O  0.95046956  0.56776864  0.69593909    -0.82700
O1428       O  0.89910573  0.62246690  0.68185781    -0.85300
C1429       C  0.87648220  0.60027058  0.68672729     1.02400
O1430       O  0.85946432  0.57772790  0.66486159    -0.78100
O1431       O  0.84803608  0.52708501  0.61237258    -0.78200
C1432       C  0.86096835  0.49586965  0.62602735     1.02300
Cr1433     Cr  0.92603337  0.52710606  0.62618160     1.93700
Cr1434     Cr  0.93620063  0.60604701  0.66272719     1.93200
Cr1435     Cr  0.86409615  0.58239630  0.62167233     1.39100
O1436       O  0.90920172  0.57184861  0.63674406    -1.23300
O1437       O  0.61564116  0.42712077  0.57633000    -0.85600
O1438       O  0.63029613  0.35599074  0.60606177    -0.82600
C1439       C  0.64834551  0.33035057  0.62387351     0.97900
O1440       O  0.67505175  0.34055398  0.64542176    -0.82700
O1441       O  0.72668806  0.38701787  0.62904945    -0.85300
C1442       C  0.74139017  0.41802569  0.62450854     1.02400
O1443       O  0.72750226  0.45135672  0.62613179    -0.78100
O1444       O  0.66611106  0.45467380  0.57965493    -0.78300
C1445       C  0.63722129  0.44120988  0.56367730     1.02400
O1446       O  0.60298072  0.45946784  0.63316015    -0.85600
O1447       O  0.62077477  0.38989764  0.66277477    -0.82600
C1448       C  0.64373623  0.39307983  0.68922452     0.97900
O1449       O  0.67544671  0.39743446  0.69161714    -0.82700
O1450       O  0.72859856  0.43542185  0.68082953    -0.85300
C1451       C  0.71848227  0.46873454  0.68737370     1.02400
O1452       O  0.69344984  0.48630993  0.66793730    -0.78100
O1453       O  0.63419895  0.49998228  0.61655195    -0.78200
C1454       C  0.60741571  0.49307961  0.62433454     1.02300
Cr1455     Cr  0.62135234  0.40935708  0.62054682     1.93700
Cr1456     Cr  0.69847111  0.39215118  0.65896143     1.93200
Cr1457     Cr  0.67913388  0.46921145  0.62364690     1.39100
O1458       O  0.66600509  0.42301585  0.63373688    -1.23300
O1459       O  0.63857433  0.43355577  0.91820709    -0.85600
O1460       O  0.62512737  0.36241135  0.88930321    -0.82600
C1461       C  0.60741285  0.33656426  0.87180981     0.97900
O1462       O  0.58096014  0.34620420  0.84964713    -0.82700
O1463       O  0.52896978  0.39356746  0.86431855    -0.85300
C1464       C  0.51310916  0.42458680  0.86852301     1.02400
O1465       O  0.52583513  0.45772510  0.86705977    -0.78100
O1466       O  0.58544363  0.45523825  0.91571641    -0.78300
C1467       C  0.61524670  0.44285346  0.93120805     1.02400
O1468       O  0.64820702  0.46297236  0.85975053    -0.85600
O1469       O  0.63491400  0.39152196  0.83261348    -0.82600
C1470       C  0.61232055  0.39222320  0.80591186     0.97900
O1471       O  0.58055729  0.39861651  0.80266329    -0.82700
O1472       O  0.52869186  0.44223424  0.81314820    -0.85300
C1473       C  0.53994599  0.47509291  0.80831565     1.02400
O1474       O  0.56320239  0.49220763  0.82960627    -0.78100
O1475       O  0.62025443  0.50143150  0.88330970    -0.78200
C1476       C  0.64471213  0.49565358  0.87164254     1.02300
Cr1477     Cr  0.63330429  0.41382175  0.87410099     1.93700
Cr1478     Cr  0.55723778  0.39720091  0.83498386     1.93200
Cr1479     Cr  0.57476268  0.47326782  0.87287115     1.39100
O1480       O  0.58865985  0.42744633  0.86094148    -1.23300
O1481       O  0.88343249  0.92499028  0.67659009    -0.85600
O1482       O  0.87257524  0.85458748  0.64386325    -0.82600
C1483       C  0.85263207  0.82967801  0.62688581     0.97900
O1484       O  0.82499563  0.84088719  0.60655109    -0.82700
O1485       O  0.77248645  0.89147412  0.61921911    -0.85300
C1486       C  0.75743125  0.92343454  0.62297944     1.02400
O1487       O  0.77229291  0.95542870  0.62299168    -0.78100
O1488       O  0.83048139  0.94785127  0.67312789    -0.78300
C1489       C  0.85991580  0.93490532  0.68927402     1.02400
O1490       O  0.89639758  0.95995344  0.62132688    -0.85600
O1491       O  0.88344253  0.89036595  0.59046922    -0.82600
C1492       C  0.86112503  0.88975109  0.56370517     0.97900
O1493       O  0.82899180  0.89349161  0.56043225    -0.82700
O1494       O  0.77790207  0.93978720  0.56941839    -0.85300
C1495       C  0.78931076  0.97337199  0.56653321     1.02400
O1496       O  0.81235956  0.98935793  0.58880930    -0.78100
O1497       O  0.86732046  0.99601292  0.64516563    -0.78200
C1498       C  0.89229557  0.99189959  0.63414987     1.02300
Cr1499     Cr  0.88026882  0.90873660  0.63217936     1.93700
Cr1500     Cr  0.80378147  0.89343330  0.59172866     1.93200
Cr1501     Cr  0.82187803  0.96825384  0.63132016     1.39100
O1502       O  0.83551531  0.92256110  0.61866873    -1.23300
O1503       O  0.86285333  0.92557605  0.83629106    -0.85600
O1504       O  0.88242192  0.85403187  0.86334703    -0.82600
C1505       C  0.90057504  0.82828772  0.88086586     0.97900
O1506       O  0.92771862  0.83825069  0.90204886    -0.82700
O1507       O  0.97615044  0.88838629  0.88434055    -0.85300
C1508       C  0.98921312  0.92048511  0.87972095     1.02400
O1509       O  0.97491296  0.95291391  0.88333395    -0.78100
O1510       O  0.91331910  0.95166082  0.83782283    -0.78300
C1511       C  0.88435448  0.93752301  0.82270587     1.02400
O1512       O  0.85393906  0.95285268  0.89608322    -0.85600
O1513       O  0.87398651  0.88220442  0.92174965    -0.82600
C1514       C  0.89721924  0.88540371  0.94797419     0.97900
O1515       O  0.92835644  0.89229551  0.94959066    -0.82700
O1516       O  0.97761345  0.93542234  0.93713530    -0.85300
C1517       C  0.96452526  0.96594520  0.94562587     1.02400
O1518       O  0.93952065  0.98361246  0.92617382    -0.78100
O1519       O  0.87957097  0.99435278  0.87471470    -0.78200
C1520       C  0.85575247  0.98663737  0.88632957     1.02300
Cr1521     Cr  0.87170873  0.90494218  0.88007217     1.93700
Cr1522     Cr  0.94975052  0.89037215  0.91578934     1.93200
Cr1523     Cr  0.92605980  0.96721528  0.88155804     1.39100
O1524       O  0.91558777  0.92016248  0.89186640    -1.23300
O1525       O  0.58659987  0.05373609  0.67722171    -0.85600
O1526       O  0.52318884  0.04829351  0.63412540    -0.82600
C1527       C  0.50865636  0.08111716  0.63571806     0.97900
O1528       O  0.52139096  0.11222230  0.62890975    -0.82700
O1529       O  0.56778199  0.15999232  0.60670658    -0.85300
C1530       C  0.59610821  0.17123212  0.62579961     1.02400
O1531       O  0.61619516  0.14643011  0.64305762    -0.78100
O1532       O  0.63650637  0.07704095  0.67430837    -0.78300
C1533       C  0.61613503  0.06805745  0.69005524     1.02400
O1534       O  0.61732097  0.00496689  0.64085013    -0.85600
O1535       O  0.55468954  0.01145232  0.59149289    -0.82600
C1536       C  0.52841817  0.02690797  0.57184997     0.97900
O1537       O  0.51722195  0.06031587  0.57754945    -0.82700
O1538       O  0.56434397  0.10236864  0.56045077    -0.85300
C1539       C  0.59476141  0.10903394  0.55982369     1.02400
O1540       O  0.61973709  0.11177636  0.58504711    -0.78100
O1541       O  0.64035806  0.04227938  0.61419667    -0.78200
C1542       C  0.63894582  0.00959063  0.62611001     1.02300
Cr1543     Cr  0.57130860  0.03318062  0.63463245     1.93700
Cr1544     Cr  0.54567511  0.10687144  0.59599760     1.93200
Cr1545     Cr  0.62475786  0.09300883  0.62868064     1.39100
O1546       O  0.58080860  0.07841560  0.62015093    -1.23300
O1547       O  0.64408802  0.03862706  0.83741769    -0.85600
O1548       O  0.70957098  0.06133531  0.86715993    -0.82600
C1549       C  0.73498481  0.07782513  0.88605390     0.97900
O1550       O  0.73053603  0.09870621  0.90813276    -0.82700
O1551       O  0.67718280  0.15761670  0.88849882    -0.85300
C1552       C  0.64681339  0.17261524  0.88080336     1.02400
O1553       O  0.62119136  0.15215948  0.88099090    -0.78100
O1554       O  0.62096830  0.09795364  0.83454378    -0.78300
C1555       C  0.63239682  0.06926602  0.82185116     1.02400
O1556       O  0.63929166  0.00439629  0.89473395    -0.85600
O1557       O  0.70800128  0.02590972  0.92412558    -0.82600
C1558       C  0.71210491  0.04270179  0.95031776     0.97900
O1559       O  0.69839871  0.07574222  0.95221608    -0.82700
O1560       O  0.65026529  0.13397362  0.93778979    -0.85300
C1561       C  0.62545612  0.11412606  0.94120062     1.02400
O1562       O  0.60814213  0.09227580  0.91895905    -0.78100
O1563       O  0.59598972  0.04050767  0.86738723    -0.78200
C1564       C  0.60735854  0.00811993  0.87990098     1.02300
Cr1565     Cr  0.67405749  0.03589494  0.88187948     1.93700
Cr1566     Cr  0.68697142  0.11430091  0.91911511     1.93200
Cr1567     Cr  0.61454263  0.09472024  0.87661623     1.39100
O1568       O  0.65880620  0.08142953  0.89265620    -1.23300
C1569       C  0.62588164  0.07381620  0.72416777    -0.00400
C1570       C  0.64934835  0.04744025  0.74362225    -0.12300
C1571       C  0.65240908  0.04576251  0.77551478     0.01800
C1572       C  0.63154370  0.07098010  0.78848360    -0.00500
C1573       C  0.60958469  0.09885480  0.76907005    -0.12200
C1574       C  0.60643438  0.10018550  0.73724836     0.01700
H1575       H  0.66402698  0.02682561  0.73361531     0.14700
H1576       H  0.59389130  0.11885235  0.77846619     0.14700
C1577       C  0.58218325  0.12820104  0.71813456     0.36400
C1578       C  0.67708793  0.01763859  0.79404960     0.36300
N1579       N  0.56278550  0.15065302  0.70280240    -0.44000
N1580       N  0.69695149  0.99510427  0.80878213    -0.44000
C1581       C  0.60114118  0.11326293  0.52889563    -0.00400
C1582       C  0.63387768  0.12554659  0.52792661    -0.12300
C1583       C  0.64216634  0.12795442  0.99984556     0.01800
C1584       C  0.61726750  0.11649785  0.97143135    -0.00500
C1585       C  0.58422795  0.10557880  0.97224103    -0.12200
C1586       C  0.57548922  0.10468755  0.50012014     0.01700
H1587       H  0.65363663  0.13345572  0.54942701     0.14700
H1588       H  0.56448701  0.09786902  0.95065372     0.14700
C1589       C  0.53983843  0.09643422  0.49791746     0.36400
C1590       C  0.67628271  0.14175458  0.00118222     0.36300
N1591       N  0.51089517  0.09087947  0.49552460    -0.44000
N1592       N  0.70353535  0.15329776  0.00248817    -0.44000
C1593       C  0.97869484  0.97881749  0.97844957    -0.00400
C1594       C  0.51037785  0.96418067  0.99824909    -0.12300
C1595       C  0.52519018  0.97587804  0.52917818     0.01800
C1596       C  0.51052909  0.00786712  0.54147822    -0.00500
C1597       C  0.97730835  0.01768930  0.52372128    -0.12200
C1598       C  0.96271470  0.00838944  0.99198215     0.01700
H1599       H  0.52229898  0.93965305  0.98927244     0.14700
H1600       H  0.96522043  0.04123981  0.53346415     0.14700
C1601       C  0.93259129  0.03076828  0.97425805     0.40400
C1602       C  0.55573043  0.95457418  0.54739899     0.36300
N1603       N  0.90884624  0.04933583  0.96013075    -0.44000
N1604       N  0.58004359  0.93718731  0.56195637    -0.44000
C1605       C  0.82890992  0.01658985  0.88743139    -0.00400
C1606       C  0.80935420  0.03486085  0.85974409    -0.12300
C1607       C  0.77965513  0.05795744  0.85884430     0.01800
C1608       C  0.77046336  0.06493136  0.88643138    -0.00500
C1609       C  0.79194355  0.04944811  0.91453401    -0.12200
C1610       C  0.82007744  0.02429315  0.91504354     0.01700
H1611       H  0.81577829  0.02873045  0.83831284     0.14700
H1612       H  0.78458166  0.05362079  0.93574066     0.14700
C1613       C  0.83795767  0.00470996  0.94377419     0.36400
C1614       C  0.75805437  0.07247807  0.82922332     0.36300
N1615       N  0.85198012  0.98872462  0.96673375    -0.44000
N1616       N  0.74064649  0.08395130  0.80546531    -0.44000
C1617       C  0.52526093  0.92709240  0.87490620    -0.00400
C1618       C  0.52540807  0.94819702  0.84850015    -0.12300
C1619       C  0.55344628  0.97203677  0.84878522     0.01800
C1620       C  0.58231014  0.97530293  0.87604219    -0.00500
C1621       C  0.58438230  0.94988393  0.90081302    -0.12200
C1622       C  0.55611873  0.92584719  0.90036424     0.01700
H1623       H  0.00050220  0.94431000  0.82756005     0.14700
H1624       H  0.60665064  0.95118251  0.92153466     0.14700
C1625       C  0.55779110  0.90345504  0.92768433     0.36400
C1626       C  0.55091229  0.99457554  0.82126889     0.36300
N1627       N  0.55916762  0.88532656  0.94951870    -0.44000
N1628       N  0.54890729  0.01269667  0.79928359    -0.44000
C1629       C  0.73441710  0.02486021  0.97934836    -0.00400
C1630       C  0.74592994  0.04897470  0.00615581    -0.12300
C1631       C  0.76587521  0.03345387  0.53460094     0.01800
C1632       C  0.77381331  0.99305009  0.53673687    -0.00500
C1633       C  0.76333610  0.96918422  0.50989116    -0.12200
C1634       C  0.74464374  0.98489267  0.98120233     0.01700
H1635       H  0.73903981  0.07994575  0.00505560     0.14700
H1636       H  0.76977388  0.93802688  0.51138034     0.14700
C1637       C  0.73427491  0.95826030  0.95485296     0.36400
C1638       C  0.77574005  0.05927874  0.56149337     0.36300
N1639       N  0.72602129  0.93684446  0.93378585    -0.44000
N1640       N  0.78361528  0.08000106  0.58302273    -0.44000
C1641       C  0.87222726  0.88517039  0.53511978    -0.00400
C1642       C  0.84850190  0.86971272  0.50791652    -0.12300
C1643       C  0.85661501  0.86768225  0.97964731     0.01800
C1644       C  0.88843095  0.88251357  0.97773972    -0.00500
C1645       C  0.91245607  0.89720701  0.00511984    -0.12200
C1646       C  0.90464596  0.89845769  0.53353559     0.01700
H1647       H  0.82359694  0.85901802  0.50877098     0.14700
H1648       H  0.93697507  0.90905145  0.00427076     0.14700
C1649       C  0.92998585  0.91594549  0.56001201     0.36400
C1650       C  0.83118334  0.85065854  0.95301918     0.36300
N1651       N  0.95044786  0.93009022  0.58103953    -0.44000
N1652       N  0.81077017  0.83693893  0.93173557    -0.44000
C1653       C  0.87658059  0.93474496  0.78857703    -0.00400
C1654       C  0.90429710  0.92510723  0.77663462    -0.12300
C1655       C  0.89973281  0.92420274  0.74461692     0.01800
C1656       C  0.86657630  0.93307617  0.72358400    -0.00500
C1657       C  0.83870183  0.94216192  0.73574717    -0.12200
C1658       C  0.84344882  0.94330525  0.76783157     0.01700
H1659       H  0.92994559  0.91856078  0.79253631     0.14700
H1660       H  0.81306281  0.94942035  0.72021294     0.14700
C1661       C  0.81456038  0.95603610  0.77870561     0.36400
C1662       C  0.92995731  0.91521354  0.73453433     0.36300
N1663       N  0.79134891  0.96663137  0.78717515    -0.44000
N1664       N  0.95441447  0.90829554  0.72672971    -0.44000
C1665       C  0.97359126  0.07286591  0.63852270    -0.00400
C1666       C  0.97076452  0.05659254  0.66608149    -0.12300
C1667       C  0.94246707  0.03295904  0.66565105     0.01800
C1668       C  0.91733313  0.02395528  0.63704270    -0.00500
C1669       C  0.91788060  0.04398768  0.61028563    -0.12200
C1670       C  0.94514370  0.06940724  0.61115573     0.01700
H1671       H  0.49246079  0.06622860  0.68857315     0.14700
H1672       H  0.89783491  0.03857802  0.58849420     0.14700
C1673       C  0.94511363  0.08871649  0.58288420     0.36400
C1674       C  0.94121140  0.01620644  0.69448165     0.36300
N1675       N  0.94481712  0.10464685  0.56032402    -0.44000
N1676       N  0.94027923  0.00355033  0.71788104    -0.44000
C1677       C  0.72049477  0.92712093  0.62220556    -0.00400
C1678       C  0.69812374  0.94307457  0.59464272    -0.12300
C1679       C  0.67045632  0.96858278  0.59521005     0.01800
C1680       C  0.66362281  0.97727890  0.62361970    -0.00500
C1681       C  0.68299953  0.95709300  0.65050699    -0.12200
C1682       C  0.71159257  0.93257524  0.65003872     0.01700
H1683       H  0.70492954  0.93959419  0.57316653     0.14700
H1684       H  0.67764513  0.96292967  0.67238677     0.14700
C1685       C  0.73320821  0.91590020  0.67879969     0.36400
C1686       C  0.65072765  0.98719006  0.56656231     0.36300
N1687       N  0.75040216  0.90225445  0.70180222    -0.44000
N1688       N  0.63495680  0.00212439  0.54361312    -0.44000
C1689       C  0.64013876  0.21491743  0.87514306    -0.00400
C1690       C  0.66172927  0.24208360  0.89522538    -0.12300
C1691       C  0.65163210  0.28176543  0.89528624     0.01800
C1692       C  0.61891855  0.29468231  0.87507679    -0.00500
C1693       C  0.59813239  0.26736129  0.85434542    -0.12200
C1694       C  0.60851301  0.22816096  0.85397164     0.01700
H1695       H  0.68595501  0.23199885  0.91182992     0.14700
H1696       H  0.57352127  0.27660114  0.83788634     0.14700
C1697       C  0.58609950  0.20206782  0.83141966     0.36400
C1698       C  0.67564980  0.30817303  0.91609931     0.36300
N1699       N  0.56807357  0.18132636  0.81328807    -0.44000
N1700       N  0.69508735  0.32925946  0.93266112    -0.44000
C1701       C  0.63595466  0.28876876  0.62184073    -0.00400
C1702       C  0.60016241  0.28125615  0.60843977    -0.12300
C1703       C  0.58624878  0.24397435  0.60995682     0.01800
C1704       C  0.60809477  0.21284251  0.62575549    -0.00500
C1705       C  0.64396414  0.22035038  0.63863537    -0.12200
C1706       C  0.65794324  0.25724811  0.63641350     0.01700
H1707       H  0.58263839  0.30490294  0.59723868     0.14700
H1708       H  0.66168070  0.19680378  0.64971500     0.14700
C1709       C  0.69529618  0.26126127  0.64812730     0.36400
C1710       C  0.54940746  0.23888532  0.59511877     0.36300
N1711       N  0.72527358  0.26430608  0.65720485    -0.44000
N1712       N  0.51989857  0.23492308  0.58300836    -0.44000
C1713       C  0.62263044  0.44088742  0.96516944    -0.00400
C1714       C  0.63356927  0.47489533  0.98292046    -0.12300
C1715       C  0.63776020  0.47553212  0.51476628     0.01800
C1716       C  0.62939362  0.44235344  0.52942101    -0.00500
C1717       C  0.61699019  0.40874735  0.51142186    -0.12200
C1718       C  0.61377484  0.40780531  0.97940718     0.01700
H1719       H  0.63880169  0.50101210  0.97167854     0.14700
H1720       H  0.61062406  0.38309088  0.52246246     0.14700
C1721       C  0.60075146  0.37280732  0.96157738     0.36400
C1722       C  0.64824329  0.51194553  0.53154952     0.36300
N1723       N  0.59020217  0.34473937  0.94734664    -0.44000
N1724       N  0.65643084  0.54121179  0.54490012    -0.44000
C1725       C  0.63424815  0.39262617  0.71854847    -0.00400
C1726       C  0.61687604  0.36059848  0.72577956    -0.12300
C1727       C  0.61074191  0.35871930  0.75491427     0.01800
C1728       C  0.62296244  0.38868170  0.77742827    -0.00500
C1729       C  0.64025556  0.42037823  0.77016133    -0.12200
C1730       C  0.64523135  0.42302388  0.74091992     0.01700
H1731       H  0.60842614  0.33698855  0.70885900     0.14700
H1732       H  0.64799523  0.44448338  0.78678891     0.14700
C1733       C  0.65837395  0.45933247  0.73363273     0.36400
C1734       C  0.59232715  0.32571328  0.76145531     0.36300
N1735       N  0.66781789  0.48952794  0.72860039    -0.44000
N1736       N  0.57766032  0.29920554  0.76677578    -0.44000
C1737       C  0.86289070  0.78676905  0.62862838    -0.00400
C1738       C  0.84156692  0.76052579  0.60696924    -0.12300
C1739       C  0.85161240  0.72114582  0.60460394     0.01800
C1740       C  0.88378546  0.70655803  0.62418715    -0.00500
C1741       C  0.90530581  0.73245474  0.64574556    -0.12200
C1742       C  0.89529405  0.77198027  0.64822634     0.01700
H1743       H  0.81699389  0.77088292  0.59118959     0.14700
H1744       H  0.92961079  0.72142176  0.66155208     0.14700
C1745       C  0.91905200  0.79626443  0.67125587     0.36400
C1746       C  0.82867293  0.69646425  0.58120405     0.36300
N1747       N  0.93827906  0.81551308  0.68976793    -0.44000
N1748       N  0.81036616  0.67673423  0.56238617    -0.44000
C1749       C  0.98865334  0.51896404  0.72301768    -0.00400
C1750       C  0.00527571  0.54523746  0.74716795    -0.12300
C1751       C  0.52072847  0.53302233  0.77276230     0.01800
C1752       C  0.52469161  0.49235000  0.77750093    -0.00500
C1753       C  0.51184171  0.46641305  0.75220474    -0.12200
C1754       C  0.99363390  0.47833271  0.72782971     0.01700
H1755       H  0.00243254  0.57660027  0.74337366     0.14700
H1756       H  0.51579207  0.43502157  0.75550101     0.14700
C1757       C  0.97761169  0.44978109  0.70403480     0.36400
C1758       C  0.53429136  0.56116932  0.79759415     0.36300
N1759       N  0.96479249  0.42676831  0.68508174    -0.44000
N1760       N  0.54522845  0.58380923  0.81740606    -0.44000
C1761       C  0.77723462  0.41866424  0.62181211    -0.00400
C1762       C  0.80479571  0.42201473  0.64978112    -0.12300
C1763       C  0.83486405  0.44338749  0.65117878     0.01800
C1764       C  0.83724659  0.46242316  0.62435278    -0.00500
C1765       C  0.81190316  0.45466082  0.59574711    -0.12200
C1766       C  0.78229295  0.43278792  0.59428026     0.01700
H1767       H  0.80110487  0.41191452  0.67126811     0.14700
H1768       H  0.81393430  0.46822721  0.57475546     0.14700
C1769       C  0.75570985  0.42851776  0.56467409     0.36400
C1770       C  0.86079854  0.44929070  0.68095638     0.36300
N1771       N  0.73459361  0.42494503  0.54084659    -0.44000
N1772       N  0.88167952  0.45429518  0.70472972    -0.44000
C1773       C  0.51618736  0.56491773  0.61689426    -0.00400
C1774       C  0.54544542  0.56855298  0.64343184    -0.12300
C1775       C  0.57689971  0.54822357  0.64535865     0.01800
C1776       C  0.57922435  0.52322720  0.62071845    -0.00500
C1777       C  0.55159700  0.52345505  0.59286706    -0.12200
C1778       C  0.52057357  0.54469567  0.59055111     0.01700
H1779       H  0.54298573  0.58466675  0.66369519     0.14700
H1780       H  0.55365270  0.50554929  0.57329867     0.14700
C1781       C  0.00944058  0.56410837  0.57357685     0.36400
C1782       C  0.60603992  0.55283516  0.67306365     0.36300
N1783       N  0.99205111  0.57488734  0.54958931    -0.44000
N1784       N  0.62938756  0.55767558  0.69515173    -0.44000
C1785       C  0.88806761  0.78703348  0.87932988    -0.00400
C1786       C  0.90379659  0.76198821  0.90446019    -0.12300
C1787       C  0.89153671  0.72408351  0.90572234     0.01800
C1788       C  0.86287662  0.71022516  0.88161492    -0.00500
C1789       C  0.84609804  0.73541910  0.85719417    -0.12200
C1790       C  0.85832365  0.77339383  0.85576266     0.01700
H1791       H  0.92567326  0.77203285  0.92346190     0.14700
H1792       H  0.82453719  0.72461357  0.83821088     0.14700
C1793       C  0.84021627  0.79696414  0.82927794     0.36400
C1794       C  0.90865032  0.69985936  0.93214273     0.36300
N1795       N  0.82560595  0.81575556  0.80800976    -0.44000
N1796       N  0.92217873  0.68052571  0.95339605    -0.44000
C1797       C  0.76923835  0.52292579  0.77534445    -0.00400
C1798       C  0.76867165  0.48200084  0.77272777    -0.12300
C1799       C  0.75289293  0.46367733  0.74419429     0.01800
C1800       C  0.73674047  0.48668157  0.71762510    -0.00500
C1801       C  0.73702371  0.52756225  0.72029195    -0.12200
C1802       C  0.75320596  0.54588371  0.74868362     0.01700
H1803       H  0.78112898  0.46424058  0.79288476     0.14700
H1804       H  0.72467486  0.54529183  0.70008714     0.14700
C1805       C  0.75232504  0.58828653  0.74948573     0.36400
C1806       C  0.75304741  0.42127090  0.74336218     0.36300
N1807       N  0.75162072  0.62224411  0.74993588    -0.44000
N1808       N  0.75337884  0.38731133  0.74284603    -0.44000
C1809       C  0.87216683  0.60125569  0.71870512    -0.00400
C1810       C  0.88992836  0.63061506  0.73970538    -0.12300
C1811       C  0.89101697  0.63111882  0.77108214     0.01800
C1812       C  0.87505459  0.60132397  0.78267343    -0.00500
C1813       C  0.85650085  0.57241207  0.76193858    -0.12200
C1814       C  0.85435645  0.57250691  0.73009764     0.01700
H1815       H  0.90326694  0.65349563  0.73173075     0.14700
H1816       H  0.84278732  0.55038357  0.77043565     0.14700
C1817       C  0.83277322  0.54366432  0.70983430     0.36400
C1818       C  0.90861597  0.66270679  0.79101486     0.36300
N1819       N  0.81477684  0.52090050  0.69378741    -0.44000
N1820       N  0.92260435  0.68807436  0.80699804    -0.44000
C1821       C  0.87409492  0.56380987  0.96810144    -0.00400
C1822       C  0.88534335  0.52925206  0.98474948    -0.12300
C1823       C  0.88807238  0.52693328  0.51640044     0.01800
C1824       C  0.87770674  0.55939935  0.53210194    -0.00500
C1825       C  0.86583827  0.59394861  0.51511604    -0.12200
C1826       C  0.86448128  0.59658285  0.98355720     0.01700
H1827       H  0.89270191  0.50393759  0.97300798     0.14700
H1828       H  0.85800609  0.61925544  0.52650592     0.14700
C1829       C  0.85146475  0.63250468  0.96724381     0.36400
C1830       C  0.90182106  0.49060724  0.53175836     0.36300
N1831       N  0.84094938  0.66128857  0.95419558    -0.44000
N1832       N  0.91312540  0.46156265  0.54400640    -0.44000
C1833       C  0.91687078  0.46708892  0.87570630    -0.00400
C1834       C  0.94395260  0.46300028  0.90379121    -0.12300
C1835       C  0.97456193  0.44196518  0.90492346     0.01800
C1836       C  0.97864458  0.42470825  0.87755552    -0.00500
C1837       C  0.94955294  0.42348922  0.85070668    -0.12200
C1838       C  0.91847507  0.44420178  0.84967395     0.01700
H1839       H  0.94242481  0.47911101  0.92442306     0.14700
H1840       H  0.95238826  0.41014956  0.82947399     0.14700
C1841       C  0.89021107  0.44452575  0.82092101     0.36400
C1842       C  0.49891168  0.43343295  0.92825801     0.36300
N1843       N  0.86746447  0.44434900  0.79792174    -0.44000
N1844       N  0.52072750  0.43055614  0.95173822    -0.44000
C1845       C  0.73023756  0.56902285  0.87372654    -0.00400
C1846       C  0.72791961  0.55210964  0.90133085    -0.12300
C1847       C  0.69908311  0.53001349  0.90151308     0.01800
C1848       C  0.67120508  0.52562625  0.87399130    -0.00500
C1849       C  0.67176431  0.54541214  0.84714912    -0.12200
C1850       C  0.70089713  0.56708044  0.84673574     0.01700
H1851       H  0.75010725  0.55305405  0.92218218     0.14700
H1852       H  0.65037903  0.54179782  0.82590911     0.14700
C1853       C  0.70113787  0.58325452  0.81739236     0.36400
C1854       C  0.70056039  0.50844145  0.92922279     0.36300
N1855       N  0.70105233  0.59604941  0.79373907    -0.44000
N1856       N  0.70211765  0.49080491  0.95133672    -0.44000
loop_ 
_geom_bond_atom_site_label_1 
_geom_bond_atom_site_label_2 
_geom_bond_distance 
_geom_bond_site_symmetry_2 
_ccdc_geom_bond_type 
O1          Cr19   2.008       .  S
O1            C9   1.271       .  A
O2          Cr19   1.961       .  S
O2            C3   1.255       .  A
C3            O4   1.271       .  A
C3          C453   1.496       .  S
O4          Cr20   2.032       .  S
O5          Cr20   2.007       .  S
O5            C6   1.269       .  A
C6            O7   1.259       .  A
C6          C396   1.490       .  S
O7          Cr21   1.988       .  S
O8          Cr21   1.994       .  S
O8            C9   1.270       .  A
C9          C429   1.488       .  S
O10         Cr19   1.994       .  S
O10          C18   1.256       .  A
O11         Cr19   2.001       .  S
O11          C12   1.265       .  A
C12          O13   1.252       .  A
C12         C405   1.472       .  S
O13         Cr20   1.947       .  S
O14         Cr20   2.006       .  S
O14          C15   1.271       .  A
C15          O16   1.273       .  A
C15         C420   1.496       .  S
O16         Cr21   2.006       .  S
O17         Cr21   1.999       .  S
O17          C18   1.258       .  A
C18         C441   1.478       .  S
Cr19         O22   1.771       .  S
Cr20         O22   1.776       .  S
Cr21         O22   1.764       .  S
O23         Cr41   2.003       .  S
O23          C31   1.272       .  A
O24         Cr41   1.969       .  S
O24          C25   1.258       .  A
C25          O26   1.268       .  A
C25        C1309   1.494       .  S
O26         Cr42   2.018       .  S
O27         Cr42   1.995       .  S
O27          C28   1.262       .  A
C28          O29   1.258       .  A
C28         C348   1.493       .  S
O29         Cr43   1.994       .  S
O30         Cr43   1.999       .  S
O30          C31   1.274       .  A
C31         C432   1.496       .  S
O32         Cr41   2.001       .  S
O32          C40   1.257       .  A
O33         Cr41   1.994       .  S
O33          C34   1.263       .  A
C34          O35   1.252       .  A
C34         C357   1.474       .  S
O35         Cr42   1.935       .  S
O36         Cr42   2.008       .  S
O36          C37   1.272       .  A
C37          O38   1.276       .  A
C37         C417   1.488       .  S
O38         Cr43   2.007       .  S
O39         Cr43   2.012       .  S
O39          C40   1.258       .  A
C40         C372   1.498       .  S
Cr41         O44   1.771       .  S
Cr42         O44   1.780       .  S
Cr43         O44   1.773       .  S
O45         Cr63   2.045       .  S
O45          C53   1.280       .  A
O46         Cr63   1.977       .  S
O46          C47   1.258       .  A
C47          O48   1.264       .  A
C47         C309   1.507       .  S
O48         Cr64   2.013       .  S
O49         Cr64   2.012       .  S
O49          C50   1.272       .  A
C50          O51   1.263       .  A
C50         C369   1.480       .  S
O51         Cr65   1.986       .  S
O52         Cr65   1.941       .  S
O52          C53   1.258       .  A
C53         C324   1.478       .  S
O54         Cr63   1.987       .  S
O54          C62   1.253       .  A
O55         Cr63   2.024       .  S
O55          C56   1.273       .  A
C56          O57   1.260       .  A
C56         C333   1.498       .  S
O57         Cr64   1.961       .  S
O58         Cr64   1.991       .  S
O58          C59   1.263       .  A
C59          O60   1.264       .  A
C59         C408   1.469       .  S
O60         Cr65   1.972       .  S
O61         Cr65   2.009       .  S
O61          C62   1.256       .  A
C62         C384   1.486       .  S
Cr63         O66   1.773       .  S
Cr64         O66   1.782       .  S
Cr65         O66   1.774       .  S
O67         Cr85   2.030       .  S
O67          C75   1.276       .  A
O68         Cr85   1.967       .  S
O68          C69   1.254       .  A
C69          O70   1.262       .  A
C69         C300   1.493       .  S
O70         Cr86   2.000       .  S
O71         Cr86   1.997       .  S
O71          C72   1.266       .  A
C72          O73   1.266       .  A
C72        C1372   1.477   1_455  S
O73         Cr87   1.999       .  S
O74         Cr87   1.955       .  S
O74          C75   1.260       .  A
C75         C321   1.470       .  S
O76         Cr85   1.980       .  S
O76          C84   1.253       .  A
O77         Cr85   2.027       .  S
O77          C78   1.273       .  A
C78          O79   1.259       .  A
C78         C336   1.491       .  S
O79         Cr86   1.959       .  S
O80         Cr86   1.980       .  S
O80          C81   1.262       .  A
C81          O82   1.265       .  A
C81         C360   1.471       .  S
O82         Cr87   1.990       .  S
O83         Cr87   2.013       .  S
O83          C84   1.258       .  A
C84         C456   1.480       .  S
Cr85         O88   1.771       .  S
Cr86         O88   1.778       .  S
Cr87         O88   1.776       .  S
O89        Cr107   2.029       .  S
O89          C97   1.279       .  A
O90        Cr107   1.992       .  S
O90          C91   1.261       .  A
C91          O92   1.261       .  A
C91         C345   1.500       .  S
O92        Cr108   1.985       .  S
O93        Cr108   2.004       .  S
O93          C94   1.263       .  A
C94          O95   1.257       .  A
C94         C285   1.474       .  S
O95        Cr109   1.979       .  S
O96        Cr109   1.951       .  S
O96          C97   1.263       .  A
C97         C264   1.490       .  S
O98        Cr107   1.993       .  S
O98         C106   1.253       .  A
O99        Cr107   2.004       .  S
O99         C100   1.267       .  A
C100        O101   1.257       .  A
C100        C249   1.478       .  S
O101       Cr108   1.955       .  S
O102       Cr108   1.980       .  S
O102        C103   1.264       .  A
C103        O104   1.268       .  A
C103        C240   1.456       .  S
O104       Cr109   1.983       .  S
O105       Cr109   2.007   1_545  S
O105        C106   1.253   1_545  A
C106        C276   1.484   1_565  S
Cr107       O110   1.778       .  S
Cr108       O110   1.779       .  S
Cr109       O110   1.782       .  S
O111       Cr129   2.030       .  S
O111        C119   1.277       .  A
O112       Cr129   1.971       .  S
O112        C113   1.256       .  A
C113        O114   1.269       .  A
C113        C393   1.508       .  S
O114       Cr130   2.025       .  S
O115       Cr130   2.008       .  S
O115        C116   1.271       .  A
C116        O117   1.264       .  A
C116       C1153   1.481       .  S
O117       Cr131   1.989       .  S
O118       Cr131   1.950       .  S
O118        C119   1.262       .  A
C119        C261   1.477       .  S
O120       Cr129   1.979       .  S
O120        C128   1.251       .  A
O121       Cr129   2.010       .  S
O121        C122   1.269       .  A
C122        O123   1.256       .  A
C122        C252   1.481       .  S
O123       Cr130   1.950       .  S
O124       Cr130   1.992       .  S
O124        C125   1.264       .  A
C125        O126   1.267       .  A
C125        C201   1.484       .  S
O126       Cr131   1.990       .  S
O127       Cr131   2.013       .  S
O127        C128   1.256       .  A
C128        C213   1.483   1_565  S
Cr129       O132   1.770       .  S
Cr130       O132   1.779       .  S
Cr131       O132   1.772       .  S
O133       Cr151   1.945       .  S
O133        C141   1.258       .  A
O134       Cr151   1.984       .  S
O134        C135   1.262       .  A
C135        O136   1.268       .  A
C135       C1201   1.473   1_455  S
O136       Cr152   2.000       .  S
O137       Cr152   2.021       .  S
O137        C138   1.266       .  A
C138        O139   1.257       .  A
C138        C312   1.506       .  S
O139       Cr153   1.972       .  S
O140       Cr153   2.047       .  S
O140        C141   1.279       .  A
C141        C177   1.477       .  S
O142       Cr151   2.015   1_565  S
O142        C150   1.258   1_565  A
O143       Cr151   1.982       .  S
O143        C144   1.266       .  A
C144        O145   1.264       .  A
C144        C204   1.478       .  S
O145       Cr152   1.992       .  S
O146       Cr152   1.957       .  S
O146        C147   1.256       .  A
C147        O148   1.276       .  A
C147        C189   1.500       .  S
O148       Cr153   2.036       .  S
O149       Cr153   1.981       .  S
O149        C150   1.254       .  A
C150        C288   1.488   1_545  S
Cr151       O154   1.776       .  S
Cr152       O154   1.778       .  S
Cr153       O154   1.769       .  S
O155       Cr173   2.007       .  S
O155        C163   1.269       .  A
O156       Cr173   1.973       .  S
O156        C157   1.255       .  A
C157        O158   1.265       .  A
C157        C216   1.480       .  S
O158       Cr174   2.017       .  S
O159       Cr174   1.987       .  S
O159        C160   1.265       .  A
C160        O161   1.262       .  A
C160        C297   1.475       .  S
O161       Cr175   1.991       .  S
O162       Cr175   1.990       .  S
O162        C163   1.269       .  A
C163        C180   1.493       .  S
O164       Cr173   2.008   1_565  S
O164        C172   1.262   1_565  A
O165       Cr173   2.014       .  S
O165        C166   1.268       .  A
C166        O167   1.255       .  A
C166        C237   1.481       .  S
O167       Cr174   1.947       .  S
O168       Cr174   1.995       .  S
O168        C169   1.262       .  A
C169        O170   1.273       .  A
C169        C192   1.494       .  S
O170       Cr175   2.011       .  S
O171       Cr175   1.998       .  S
O171        C172   1.261       .  A
C172        C228   1.497   1_545  S
Cr173       O176   1.771       .  S
Cr174       O176   1.776       .  S
Cr175       O176   1.763       .  S
C177        C178   1.400       .  A
C177        C182   1.412       .  A
C178        C179   1.407       .  A
C178        H183   1.083       .  S
C179        C180   1.423       .  A
C179        C186   1.445       .  S
C180        C181   1.404       .  A
C181        C182   1.399       .  A
C181        H184   1.082       .  S
C182        C185   1.445       .  S
C185        N187   1.157       .  T
C186        N188   1.158   1_545  T
C189        C190   1.402       .  A
C189        C194   1.425   1_554  A
C190        C655   1.403   1_554  A
C190        H195   1.086       .  S
C191        C192   1.423       .  A
C191        C654   1.404       .  A
C191        C198   1.445       .  S
C192        C193   1.398       .  A
C193        C658   1.402       .  A
C193        H196   1.087       .  S
C194        C657   1.402       .  A
C194        C197   1.441       .  S
C197        N199   1.156       .  T
C198        N200   1.158       .  T
C201        C206   1.410   1_565  A
C201       C1130   1.411       .  A
C202       C1129   1.411   1_455  A
C202        C667   1.394       .  A
C202        H207   1.084       .  S
C203        C204   1.408   1_565  A
C203        C666   1.394   1_554  A
C203        C210   1.444       .  S
C204       C1133   1.409   1_455  A
C205       C1132   1.409       .  A
C205        C670   1.397   1_554  A
C205        H208   1.083       .  S
C206        C669   1.397       .  A
C206        C209   1.444       .  S
C209        N211   1.157       .  T
C210        N212   1.157       .  T
C213        C214   1.407       .  A
C213        C218   1.412       .  A
C214        C215   1.407       .  A
C214        H219   1.086       .  S
C215        C216   1.411       .  A
C215        C222   1.444       .  S
C216        C217   1.404       .  A
C217        C218   1.400       .  A
C217        H220   1.087       .  S
C218        C221   1.445       .  S
C221        N223   1.157   1_545  T
C222        N224   1.157       .  T
C225       C1044   1.481   1_455  S
C225        C226   1.402       .  A
C225        C230   1.414       .  A
C226        C227   1.403       .  A
C226       H1159   1.084       .  S
C227        C228   1.419       .  A
C227        C234   1.446       .  S
C228        C229   1.406       .  A
C229        C230   1.411       .  A
C229        H232   1.083       .  S
C230        C233   1.443       .  S
H231       C1154   1.084       .  S
C233        N235   1.157       .  T
C234        N236   1.158   1_565  T
C237        C238   1.412       .  A
C237        C242   1.415   1_545  A
C238        C703   1.394       .  A
C238        H243   1.082       .  S
C239        C240   1.401   1_545  A
C239        C702   1.394       .  A
C239        C246   1.445       .  S
C240        C241   1.402       .  A
C241        C706   1.395   1_554  A
C241        H244   1.087       .  S
C242        C705   1.395       .  A
C242        C245   1.444       .  S
C245        N247   1.157       .  T
C246        N248   1.157       .  T
C249        C250   1.407       .  A
C249        C254   1.410       .  A
C250        C715   1.397   1_554  A
C250        H255   1.086       .  S
C251        C252   1.410       .  A
C251        C714   1.397       .  A
C251        C258   1.444       .  S
C252        C253   1.411       .  A
C253        C718   1.398       .  A
C253        H256   1.086       .  S
C254        C717   1.398       .  A
C254        C257   1.446       .  S
C257        N259   1.158       .  T
C258        N260   1.157       .  T
C261        C262   1.405       .  A
C261        C266   1.407       .  A
C262        C263   1.397       .  A
C262        H267   1.085       .  S
C263        C264   1.414       .  A
C263        C270   1.444       .  S
C264        C265   1.414       .  A
C265        C266   1.400       .  A
C265        H268   1.084       .  S
C266        C269   1.445       .  S
C269        N271   1.157       .  T
C270        N272   1.157       .  T
C273       C1063   1.479       .  S
C273        C274   1.407       .  A
C273        C278   1.412       .  A
C274        C275   1.408       .  A
C274       H1207   1.083       .  S
C275        C276   1.412       .  A
C275        C282   1.444       .  S
C276        C277   1.402       .  A
C277        C278   1.405       .  A
C277        H280   1.082       .  S
C278        C281   1.443       .  S
H279       C1202   1.083       .  S
C281        N283   1.157       .  T
C282        N284   1.157       .  T
C285        C286   1.404       .  A
C285        C290   1.408       .  A
C286        C287   1.400       .  A
C286        H291   1.085       .  S
C287        C288   1.412       .  A
C287        C294   1.445       .  S
C288        C289   1.409       .  A
C289        C290   1.410       .  A
C289        H292   1.083       .  S
C290        C293   1.443       .  S
C293        N295   1.157       .  T
C294        N296   1.157       .  T
C297        C298   1.402       .  A
C297        C302   1.409       .  A
C298        C299   1.404       .  A
C298        H303   1.088       .  S
C299        C300   1.421       .  A
C299        C306   1.444       .  S
C300        C301   1.408       .  A
C301        C302   1.398       .  A
C301        H304   1.087       .  S
C302        C305   1.445       .  S
C305        N307   1.157       .  T
C306        N308   1.158       .  T
C309        C310   1.411       .  A
C309        C314   1.418       .  A
C310        C311   1.409       .  A
C310        H315   1.084       .  S
C311        C312   1.418       .  A
C311        C318   1.444       .  S
C312        C313   1.410       .  A
C313        C314   1.406       .  A
C313        H316   1.084       .  S
C314        C317   1.444       .  S
C317        N319   1.157       .  T
C318        N320   1.157       .  T
C321        C322   1.397       .  A
C321        C326   1.412       .  A
C322        C787   1.397       .  A
C322        H327   1.090       .  S
C323        C324   1.417       .  A
C323        C786   1.398   1_554  A
C323        C330   1.445       .  S
C324        C325   1.402       .  A
C325        C790   1.405   1_554  A
C325        H328   1.089       .  S
C326        C789   1.405       .  A
C326        C329   1.443       .  S
C329        N331   1.157       .  T
C330        N332   1.157       .  T
C333        C334   1.412       .  A
C333        C338   1.414       .  A
C334        C335   1.401       .  A
C334        H339   1.083       .  S
C335        C336   1.410       .  A
C335        C342   1.445       .  S
C336        C337   1.410       .  A
C337        C338   1.403       .  A
C337        H340   1.086       .  S
C338        C341   1.444       .  S
C341        N343   1.157       .  T
C342        N344   1.157       .  T
C345        C346   1.407       .  A
C345        C350   1.421       .  A
C346        C347   1.400       .  A
C346        H351   1.085       .  S
C347        C348   1.416       .  A
C347        C354   1.445       .  S
C348        C349   1.405       .  A
C349        C350   1.409       .  A
C349        H352   1.085       .  S
C350        C353   1.443       .  S
C353        N355   1.157       .  T
C354        N356   1.157       .  T
C357        C358   1.412       .  A
C357        C362   1.409       .  A
C358       C1287   1.393       .  A
C358        H363   1.084       .  S
C359        C360   1.407       .  A
C359       C1286   1.397       .  A
C359        C366   1.444       .  S
C360        C361   1.409       .  A
C361       C1290   1.393   1_455  A
C361        H364   1.084       .  S
C362       C1289   1.391       .  A
C362        C365   1.445       .  S
C365        N367   1.157       .  T
C366        N368   1.157       .  T
C369        C370   1.407       .  A
C369        C374   1.410       .  A
C370        C371   1.410       .  A
C370        H375   1.085       .  S
C371        C372   1.414       .  A
C371        C378   1.443       .  S
C372        C373   1.409       .  A
C373        C374   1.405       .  A
C373        H376   1.085       .  S
C374        C377   1.446       .  S
C377        N379   1.158       .  T
C378        N380   1.157       .  T
C381        C953   1.490   1_455  S
C381        C382   1.409       .  A
C381        C386   1.413       .  A
C382        C383   1.406       .  A
C382        H387   1.087       .  S
C383        C384   1.412       .  A
C383        C390   1.445       .  S
C384        C385   1.405       .  A
C385        C386   1.407       .  A
C385        H388   1.086       .  S
C386       C1317   1.443       .  S
C389       C1314   1.445       .  S
C389        N391   1.157       .  T
C390        N392   1.158       .  T
C393        C394   1.409       .  A
C393        C398   1.425       .  A
C394        C395   1.406       .  A
C394        H399   1.083       .  S
C395        C396   1.414       .  A
C395        C402   1.445       .  S
C396        C397   1.402       .  A
C397        C398   1.410       .  A
C397        H400   1.084       .  S
C398        C401   1.444       .  S
C401        N403   1.157       .  T
C402        N404   1.157       .  T
C405        C406   1.401       .  A
C405        C410   1.417       .  A
C406        C407   1.394       .  A
C406        H411   1.084       .  S
C407        C408   1.416       .  A
C407        C414   1.445       .  S
C408        C409   1.399       .  A
C409        C410   1.392       .  A
C409        H412   1.084       .  S
C410        C413   1.445       .  S
C413        N415   1.157       .  T
C414        N416   1.158       .  T
C417        C418   1.409       .  A
C417        C422   1.406       .  A
C418        C419   1.406       .  A
C418        H423   1.086       .  S
C419        C420   1.412       .  A
C419        C426   1.443       .  S
C420        C421   1.413       .  A
C421        C422   1.406       .  A
C421        H424   1.085       .  S
C422        C425   1.443       .  S
C425        N427   1.157       .  T
C426        N428   1.157       .  T
C429        C430   1.402       .  A
C429        C434   1.414       .  A
C430        C895   1.398       .  A
C430        H435   1.085       .  S
C431        C432   1.421       .  A
C431        C894   1.399   1_554  A
C431        C438   1.446       .  S
C432        C433   1.408       .  A
C433        C898   1.407   1_554  A
C433        H436   1.084       .  S
C434        C897   1.407       .  A
C434        C437   1.443       .  S
C437        N439   1.157       .  T
C438        N440   1.158       .  T
C441        C442   1.405       .  A
C441        C446   1.410       .  A
C442        C443   1.399       .  A
C442        H447   1.087       .  S
C443        C444   1.407       .  A
C443       C1378   1.445       .  S
C444       C1000   1.467       .  S
C444        C445   1.406       .  A
C445        C446   1.404       .  A
C445        H448   1.087       .  S
C446        C449   1.444       .  S
C449        N451   1.157       .  T
C450       C1371   1.444   1_455  S
C450        N452   1.157       .  T
C453        C454   1.411       .  A
C453        C458   1.418       .  A
C454        C455   1.405       .  A
C454        H459   1.084       .  S
C455        C456   1.410       .  A
C455        C462   1.445       .  S
C456        C457   1.400       .  A
C457        C458   1.405       .  A
C457        H460   1.084       .  S
C458        C461   1.442       .  S
C461        N463   1.157       .  T
C462        N464   1.158       .  T
O465       Cr483   2.008       .  S
O465        C473   1.271       .  A
O466       Cr483   1.960       .  S
O466        C467   1.255       .  A
C467        O468   1.271       .  A
C467        C917   1.495       .  S
O468       Cr484   2.032       .  S
O469       Cr484   2.008       .  S
O469        C470   1.269       .  A
C470        O471   1.259       .  A
C470        C860   1.490       .  S
O471       Cr485   1.988       .  S
O472       Cr485   1.994       .  S
O472        C473   1.270       .  A
C473        C893   1.488       .  S
O474       Cr483   1.993       .  S
O474        C482   1.256       .  A
O475       Cr483   2.002       .  S
O475        C476   1.265       .  A
C476        O477   1.252       .  A
C476        C869   1.472       .  S
O477       Cr484   1.947       .  S
O478       Cr484   2.005       .  S
O478        C479   1.270       .  A
C479        O480   1.273       .  A
C479        C884   1.493       .  S
O480       Cr485   2.005       .  S
O481       Cr485   1.998       .  S
O481        C482   1.258       .  A
C482        C905   1.477       .  S
Cr483       O486   1.771       .  S
Cr484       O486   1.776       .  S
Cr485       O486   1.764       .  S
O487       Cr505   2.003       .  S
O487        C495   1.272       .  A
O488       Cr505   1.969       .  S
O488        C489   1.258       .  A
C489        O490   1.268       .  A
C489       C1773   1.493       .  S
O490       Cr506   2.017       .  S
O491       Cr506   1.995       .  S
O491        C492   1.262       .  A
C492        O493   1.258       .  A
C492        C812   1.493       .  S
O493       Cr507   1.994       .  S
O494       Cr507   1.998       .  S
O494        C495   1.274       .  A
C495        C896   1.496       .  S
O496       Cr505   2.002       .  S
O496        C504   1.257       .  A
O497       Cr505   1.994       .  S
O497        C498   1.263       .  A
C498        O499   1.252       .  A
C498        C821   1.475       .  S
O499       Cr506   1.938       .  S
O500       Cr506   2.008       .  S
O500        C501   1.272       .  A
C501        O502   1.276       .  A
C501        C881   1.488       .  S
O502       Cr507   2.006       .  S
O503       Cr507   2.011       .  S
O503        C504   1.258       .  A
C504        C836   1.498       .  S
Cr505       O508   1.770       .  S
Cr506       O508   1.780       .  S
Cr507       O508   1.773       .  S
O509       Cr527   2.045       .  S
O509        C517   1.280       .  A
O510       Cr527   1.977       .  S
O510        C511   1.258       .  A
C511        O512   1.264       .  A
C511        C773   1.507       .  S
O512       Cr528   2.013       .  S
O513       Cr528   2.013       .  S
O513        C514   1.272       .  A
C514        O515   1.262       .  A
C514        C833   1.481       .  S
O515       Cr529   1.986       .  S
O516       Cr529   1.941       .  S
O516        C517   1.258       .  A
C517        C788   1.478       .  S
O518       Cr527   1.988       .  S
O518        C526   1.253       .  A
O519       Cr527   2.023       .  S
O519        C520   1.272       .  A
C520        O521   1.260       .  A
C520        C797   1.497       .  S
O521       Cr528   1.961       .  S
O522       Cr528   1.992       .  S
O522        C523   1.263       .  A
C523        O524   1.264       .  A
C523        C872   1.469       .  S
O524       Cr529   1.973       .  S
O525       Cr529   2.009       .  S
O525        C526   1.256       .  A
C526        C848   1.487       .  S
Cr527       O530   1.773       .  S
Cr528       O530   1.782       .  S
Cr529       O530   1.773       .  S
O531       Cr549   2.030       .  S
O531        C539   1.276       .  A
O532       Cr549   1.967       .  S
O532        C533   1.254       .  A
C533        O534   1.262       .  A
C533        C764   1.493       .  S
O534       Cr550   1.999       .  S
O535       Cr550   1.997       .  S
O535        C536   1.266       .  A
C536        O537   1.266       .  A
C536       C1836   1.476   1_455  S
O537       Cr551   1.999       .  S
O538       Cr551   1.955       .  S
O538        C539   1.260       .  A
C539        C785   1.470       .  S
O540       Cr549   1.979       .  S
O540        C548   1.253       .  A
O541       Cr549   2.027       .  S
O541        C542   1.273       .  A
C542        O543   1.258       .  A
C542        C800   1.490       .  S
O543       Cr550   1.958       .  S
O544       Cr550   1.979       .  S
O544        C545   1.261       .  A
C545        O546   1.265       .  A
C545        C824   1.471       .  S
O546       Cr551   1.989       .  S
O547       Cr551   2.012       .  S
O547        C548   1.258       .  A
C548        C920   1.479       .  S
Cr549       O552   1.771       .  S
Cr550       O552   1.778       .  S
Cr551       O552   1.776       .  S
O553       Cr571   2.030       .  S
O553        C561   1.279       .  A
O554       Cr571   1.992       .  S
O554        C555   1.262       .  A
C555        O556   1.261       .  A
C555        C809   1.499       .  S
O556       Cr572   1.984       .  S
O557       Cr572   2.004       .  S
O557        C558   1.263       .  A
C558        O559   1.257       .  A
C558        C749   1.473       .  S
O559       Cr573   1.979       .  S
O560       Cr573   1.951       .  S
O560        C561   1.263       .  A
C561        C728   1.490       .  S
O562       Cr571   1.994       .  S
O562        C570   1.253       .  A
O563       Cr571   2.004       .  S
O563        C564   1.267       .  A
C564        O565   1.257       .  A
C564        C713   1.478       .  S
O565       Cr572   1.955       .  S
O566       Cr572   1.980       .  S
O566        C567   1.264       .  A
C567        O568   1.268       .  A
C567        C704   1.456       .  S
O568       Cr573   1.983       .  S
O569       Cr573   2.006   1_545  S
O569        C570   1.252   1_545  A
C570        C740   1.484   1_565  S
Cr571       O574   1.777       .  S
Cr572       O574   1.779       .  S
Cr573       O574   1.782       .  S
O575       Cr593   2.031       .  S
O575        C583   1.277       .  A
O576       Cr593   1.971       .  S
O576        C577   1.256       .  A
C577        O578   1.269       .  A
C577        C857   1.509       .  S
O578       Cr594   2.025       .  S
O579       Cr594   2.009       .  S
O579        C580   1.271       .  A
C580        O581   1.263       .  A
C580       C1617   1.481       .  S
O581       Cr595   1.988       .  S
O582       Cr595   1.950       .  S
O582        C583   1.262       .  A
C583        C725   1.477       .  S
O584       Cr593   1.979       .  S
O584        C592   1.251       .  A
O585       Cr593   2.010       .  S
O585        C586   1.269       .  A
C586        O587   1.256       .  A
C586        C716   1.481       .  S
O587       Cr594   1.951       .  S
O588       Cr594   1.992       .  S
O588        C589   1.264       .  A
C589        O590   1.267       .  A
C589        C665   1.484       .  S
O590       Cr595   1.989       .  S
O591       Cr595   2.014       .  S
O591        C592   1.256       .  A
C592        C677   1.484   1_565  S
Cr593       O596   1.770       .  S
Cr594       O596   1.780       .  S
Cr595       O596   1.772       .  S
O597       Cr615   1.945       .  S
O597        C605   1.258       .  A
O598       Cr615   1.984       .  S
O598        C599   1.262       .  A
C599        O600   1.268       .  A
C599       C1665   1.474   1_455  S
O600       Cr616   2.000       .  S
O601       Cr616   2.021       .  S
O601        C602   1.266       .  A
C602        O603   1.257       .  A
C602        C776   1.506       .  S
O603       Cr617   1.972       .  S
O604       Cr617   2.046       .  S
O604        C605   1.279       .  A
C605        C641   1.476       .  S
O606       Cr615   2.015   1_565  S
O606        C614   1.258   1_565  A
O607       Cr615   1.983       .  S
O607        C608   1.266       .  A
C608        O609   1.264       .  A
C608        C668   1.478   1_545  S
O609       Cr616   1.991       .  S
O610       Cr616   1.958       .  S
O610        C611   1.256       .  A
C611        O612   1.275       .  A
C611        C653   1.501       .  S
O612       Cr617   2.036       .  S
O613       Cr617   1.980       .  S
O613        C614   1.254       .  A
C614        C752   1.487   1_545  S
Cr615       O618   1.776       .  S
Cr616       O618   1.777       .  S
Cr617       O618   1.769       .  S
O619       Cr637   2.007       .  S
O619        C627   1.269       .  A
O620       Cr637   1.974       .  S
O620        C621   1.255       .  A
C621        O622   1.265       .  A
C621        C680   1.481       .  S
O622       Cr638   2.017       .  S
O623       Cr638   1.987       .  S
O623        C624   1.265       .  A
C624        O625   1.262       .  A
C624        C761   1.475       .  S
O625       Cr639   1.991       .  S
O626       Cr639   1.988       .  S
O626        C627   1.269       .  A
C627        C644   1.492       .  S
O628       Cr637   2.007   1_565  S
O628        C636   1.262   1_565  A
O629       Cr637   2.013       .  S
O629        C630   1.268       .  A
C630        O631   1.255       .  A
C630        C701   1.481       .  S
O631       Cr638   1.948       .  S
O632       Cr638   1.995       .  S
O632        C633   1.263       .  A
C633        O634   1.272       .  A
C633        C656   1.494       .  S
O634       Cr639   2.010       .  S
O635       Cr639   1.998       .  S
O635        C636   1.260       .  A
C636        C692   1.496   1_545  S
Cr637       O640   1.771       .  S
Cr638       O640   1.776       .  S
Cr639       O640   1.763       .  S
C641        C642   1.400       .  A
C641        C646   1.412       .  A
C642        C643   1.406       .  A
C642        H647   1.083       .  S
C643        C644   1.423       .  A
C643        C650   1.445       .  S
C644        C645   1.404       .  A
C645        C646   1.399       .  A
C645        H648   1.082       .  S
C646        C649   1.445       .  S
C649        N651   1.157       .  T
C650        N652   1.158   1_545  T
C653        C654   1.403       .  A
C653        C658   1.425       .  A
C654        H659   1.086       .  S
C655        C656   1.423       .  A
C655        C662   1.444       .  S
C656        C657   1.398       .  A
C657        H660   1.087       .  S
C658        C661   1.441       .  S
C661        N663   1.156       .  T
C662        N664   1.158       .  T
C665       C1594   1.411       .  A
C665        C670   1.410   1_565  A
C666       C1593   1.411   1_455  A
C666        H671   1.084       .  S
C667        C668   1.407       .  A
C667        C674   1.444       .  S
C668       C1597   1.409   1_465  A
C669       C1596   1.410       .  A
C669        H672   1.083       .  S
C670        C673   1.444       .  S
C673        N675   1.157       .  T
C674        N676   1.157       .  T
C677        C678   1.407       .  A
C677        C682   1.412       .  A
C678        C679   1.407       .  A
C678        H683   1.086       .  S
C679        C680   1.412       .  A
C679        C686   1.444       .  S
C680        C681   1.404       .  A
C681        C682   1.400       .  A
C681        H684   1.087       .  S
C682        C685   1.445       .  S
C685        N687   1.157   1_545  T
C686        N688   1.157       .  T
C689       C1508   1.480   1_455  S
C689        C690   1.402       .  A
C689        C694   1.414       .  A
C690        C691   1.402       .  A
C690       H1623   1.084       .  S
C691        C692   1.419       .  A
C691        C698   1.446       .  S
C692        C693   1.406       .  A
C693        C694   1.411       .  A
C693        H696   1.083       .  S
C694        C697   1.443       .  S
H695       C1618   1.084       .  S
C697        N699   1.157       .  T
C698        N700   1.158   1_565  T
C701        C702   1.412   1_556  A
C701        C706   1.415   1_545  A
C702        H707   1.082       .  S
C703        C704   1.401   1_545  A
C703        C710   1.445       .  S
C704        C705   1.402       .  A
C705        H708   1.087       .  S
C706        C709   1.444       .  S
C709        N711   1.157       .  T
C710        N712   1.157       .  T
C713        C714   1.407       .  A
C713        C718   1.410       .  A
C714        H719   1.086       .  S
C715        C716   1.409       .  A
C715        C722   1.444       .  S
C716        C717   1.411   1_556  A
C717        H720   1.086       .  S
C718        C721   1.445       .  S
C721        N723   1.158       .  T
C722        N724   1.157       .  T
C725        C726   1.405       .  A
C725        C730   1.407       .  A
C726        C727   1.397       .  A
C726        H731   1.085       .  S
C727        C728   1.414       .  A
C727        C734   1.444       .  S
C728        C729   1.414       .  A
C729        C730   1.400       .  A
C729        H732   1.084       .  S
C730        C733   1.445       .  S
C733        N735   1.157       .  T
C734        N736   1.157       .  T
C737       C1527   1.479       .  S
C737        C738   1.407       .  A
C737        C742   1.412       .  A
C738        C739   1.408       .  A
C738       H1671   1.083       .  S
C739        C740   1.411       .  A
C739        C746   1.444       .  S
C740        C741   1.402       .  A
C741        C742   1.404       .  A
C741        H744   1.082       .  S
C742        C745   1.443       .  S
H743       C1666   1.083       .  S
C745        N747   1.157       .  T
C746        N748   1.157       .  T
C749        C750   1.404       .  A
C749        C754   1.408       .  A
C750        C751   1.400       .  A
C750        H755   1.085       .  S
C751        C752   1.412       .  A
C751        C758   1.445       .  S
C752        C753   1.409       .  A
C753        C754   1.410       .  A
C753        H756   1.083       .  S
C754        C757   1.443       .  S
C757        N759   1.157       .  T
C758        N760   1.157       .  T
C761        C762   1.402       .  A
C761        C766   1.409       .  A
C762        C763   1.404       .  A
C762        H767   1.088       .  S
C763        C764   1.421       .  A
C763        C770   1.444       .  S
C764        C765   1.408       .  A
C765        C766   1.398       .  A
C765        H768   1.087       .  S
C766        C769   1.445       .  S
C769        N771   1.157       .  T
C770        N772   1.158       .  T
C773        C774   1.411       .  A
C773        C778   1.419       .  A
C774        C775   1.409       .  A
C774        H779   1.084       .  S
C775        C776   1.418       .  A
C775        C782   1.444       .  S
C776        C777   1.410       .  A
C777        C778   1.406       .  A
C777        H780   1.084       .  S
C778        C781   1.444       .  S
C781        N783   1.157       .  T
C782        N784   1.157       .  T
C785        C786   1.397       .  A
C785        C790   1.412       .  A
C786        H791   1.090       .  S
C787        C788   1.416       .  A
C787        C794   1.445       .  S
C788        C789   1.402       .  A
C789        H792   1.089       .  S
C790        C793   1.443       .  S
C793        N795   1.157       .  T
C794        N796   1.157       .  T
C797        C798   1.413       .  A
C797        C802   1.414       .  A
C798        C799   1.401       .  A
C798        H803   1.084       .  S
C799        C800   1.410       .  A
C799        C806   1.445       .  S
C800        C801   1.410       .  A
C801        C802   1.402       .  A
C801        H804   1.086       .  S
C802        C805   1.444       .  S
C805        N807   1.157       .  T
C806        N808   1.157       .  T
C809        C810   1.407       .  A
C809        C814   1.420       .  A
C810        C811   1.400       .  A
C810        H815   1.085       .  S
C811        C812   1.416       .  A
C811        C818   1.445       .  S
C812        C813   1.405       .  A
C813        C814   1.409       .  A
C813        H816   1.085       .  S
C814        C817   1.443       .  S
C817        N819   1.157       .  T
C818        N820   1.157       .  T
C821        C822   1.412       .  A
C821        C826   1.410       .  A
C822       C1751   1.393       .  A
C822        H827   1.084       .  S
C823       C1750   1.396       .  A
C823        C824   1.406       .  A
C823        C830   1.444       .  S
C824        C825   1.408       .  A
C825       C1754   1.393   1_455  A
C825        H828   1.085       .  S
C826       C1753   1.392       .  A
C826        C829   1.445       .  S
C829        N831   1.157       .  T
C830        N832   1.157       .  T
C833        C834   1.407       .  A
C833        C838   1.411       .  A
C834        C835   1.411       .  A
C834        H839   1.085       .  S
C835        C836   1.414       .  A
C835        C842   1.443       .  S
C836        C837   1.409       .  A
C837        C838   1.404       .  A
C837        H840   1.085       .  S
C838        C841   1.446       .  S
C841        N843   1.158       .  T
C842        N844   1.157       .  T
C845       C1417   1.490   1_455  S
C845        C846   1.408       .  A
C845        C850   1.413       .  A
C846        C847   1.406       .  A
C846        H851   1.087       .  S
C847        C848   1.412       .  A
C847        C854   1.445       .  S
C848        C849   1.405       .  A
C849        C850   1.407       .  A
C849        H852   1.086       .  S
C850       C1781   1.443       .  S
C853       C1778   1.445       .  S
C853        N855   1.157       .  T
C854        N856   1.158       .  T
C857        C858   1.409       .  A
C857        C862   1.425       .  A
C858        C859   1.406       .  A
C858        H863   1.083       .  S
C859        C860   1.415       .  A
C859        C866   1.445       .  S
C860        C861   1.402       .  A
C861        C862   1.410       .  A
C861        H864   1.084       .  S
C862        C865   1.444       .  S
C865        N867   1.157       .  T
C866        N868   1.157       .  T
C869        C870   1.401       .  A
C869        C874   1.417       .  A
C870        C871   1.395       .  A
C870        H875   1.084       .  S
C871        C872   1.416       .  A
C871        C878   1.445       .  S
C872        C873   1.399       .  A
C873        C874   1.392       .  A
C873        H876   1.084       .  S
C874        C877   1.445       .  S
C877        N879   1.157       .  T
C878        N880   1.158       .  T
C881        C882   1.410       .  A
C881        C886   1.407       .  A
C882        C883   1.405       .  A
C882        H887   1.086       .  S
C883        C884   1.410       .  A
C883        C890   1.443       .  S
C884        C885   1.412       .  A
C885        C886   1.405       .  A
C885        H888   1.084       .  S
C886        C889   1.443       .  S
C889        N891   1.157       .  T
C890        N892   1.157       .  T
C893        C894   1.402       .  A
C893        C898   1.414       .  A
C894        H899   1.085       .  S
C895        C896   1.421       .  A
C895        C902   1.446       .  S
C896        C897   1.408       .  A
C897        H900   1.084       .  S
C898        C901   1.443       .  S
C901        N903   1.157       .  T
C902        N904   1.158       .  T
C905        C906   1.405       .  A
C905        C910   1.410       .  A
C906        C907   1.399       .  A
C906        H911   1.087       .  S
C907        C908   1.407       .  A
C907       C1842   1.445       .  S
C908       C1464   1.468       .  S
C908        C909   1.406       .  A
C909        C910   1.404       .  A
C909        H912   1.087       .  S
C910        C913   1.444       .  S
C913        N915   1.157       .  T
C914       C1835   1.444   1_455  S
C914        N916   1.157       .  T
C917        C918   1.411       .  A
C917        C922   1.419       .  A
C918        C919   1.404       .  A
C918        H923   1.084       .  S
C919        C920   1.409       .  A
C919        C926   1.445       .  S
C920        C921   1.400       .  A
C921        C922   1.405       .  A
C921        H924   1.084       .  S
C922        C925   1.442       .  S
C925        N927   1.157       .  T
C926        N928   1.158       .  T
O929       Cr947   2.016       .  S
O929        C937   1.273       .  A
O930       Cr947   1.961       .  S
O930        C931   1.255       .  A
C931        O932   1.267       .  A
C931       C1381   1.490       .  S
O932       Cr948   2.021       .  S
O933       Cr948   1.991       .  S
O933        C934   1.264       .  A
C934        O935   1.262       .  A
C934       C1324   1.478       .  S
O935       Cr949   1.995       .  S
O936       Cr949   1.988       .  S
O936        C937   1.269       .  A
C937       C1357   1.482       .  S
O938       Cr947   2.002       .  S
O938        C946   1.258       .  A
O939       Cr947   2.013       .  S
O939        C940   1.269       .  A
C940        O941   1.250       .  A
C940       C1333   1.470       .  S
O941       Cr948   1.934       .  S
O942       Cr948   2.002       .  S
O942        C943   1.266       .  A
C943        O944   1.270       .  A
C943       C1348   1.480       .  S
O944       Cr949   2.007       .  S
O945       Cr949   1.996       .  S
O945        C946   1.259       .  A
C946       C1369   1.488       .  S
Cr947       O950   1.767       .  S
Cr948       O950   1.777       .  S
Cr949       O950   1.760       .  S
O951       Cr969   2.006       .  S
O951        C959   1.270       .  A
O952       Cr969   1.970       .  S
O952        C953   1.255       .  A
C953        O954   1.269       .  A
O954       Cr970   2.031       .  S
O955       Cr970   1.999       .  S
O955        C956   1.269       .  A
C956        O957   1.264       .  A
C956       C1276   1.492       .  S
O957       Cr971   2.001       .  S
O958       Cr971   1.997       .  S
O958        C959   1.271       .  A
C959       C1360   1.499       .  S
O960       Cr969   2.003       .  S
O960        C968   1.260       .  A
O961       Cr969   2.011       .  S
O961        C962   1.267       .  A
C962        O963   1.255       .  A
C962       C1285   1.471       .  S
O963       Cr970   1.947       .  S
O964       Cr970   1.999       .  S
O964        C965   1.267       .  A
C965        O966   1.273       .  A
C965       C1345   1.500       .  S
O966       Cr971   2.018       .  S
O967       Cr971   2.003       .  S
O967        C968   1.260       .  A
C968       C1300   1.490       .  S
Cr969       O972   1.769       .  S
Cr970       O972   1.776       .  S
Cr971       O972   1.766       .  S
O973       Cr991   2.035       .  S
O973        C981   1.278       .  A
O974       Cr991   1.982       .  S
O974        C975   1.257       .  A
C975        O976   1.263       .  A
C975       C1237   1.505       .  S
O976       Cr992   2.011       .  S
O977       Cr992   2.007       .  S
O977        C978   1.272       .  A
C978        O979   1.265       .  A
C978       C1297   1.483       .  S
O979       Cr993   1.997       .  S
O980       Cr993   1.949       .  S
O980        C981   1.260       .  A
C981       C1252   1.479       .  S
O982       Cr991   1.986       .  S
O982        C990   1.254       .  A
O983       Cr991   2.032       .  S
O983        C984   1.274       .  A
C984        O985   1.259       .  A
C984       C1261   1.481       .  S
O985       Cr992   1.963       .  S
O986       Cr992   1.981       .  S
O986        C987   1.257       .  A
C987        O988   1.265       .  A
C987       C1336   1.469       .  S
O988       Cr993   1.982       .  S
O989       Cr993   2.011       .  S
O989        C990   1.257       .  A
C990       C1312   1.487       .  S
Cr991       O994   1.783       .  S
Cr992       O994   1.787       .  S
Cr993       O994   1.782       .  S
O995      Cr1013   2.035       .  S
O995       C1003   1.277       .  A
O996      Cr1013   1.964       .  S
O996        C997   1.253       .  A
C997        O998   1.262       .  A
C997       C1228   1.487       .  S
O998      Cr1014   1.989       .  S
O999      Cr1014   1.991       .  S
O999       C1000   1.263       .  A
C1000      O1001   1.262       .  A
O1001     Cr1015   1.988       .  S
O1002     Cr1015   1.953       .  S
O1002      C1003   1.259       .  A
C1003      C1249   1.470       .  S
O1004     Cr1013   1.977       .  S
O1004      C1012   1.251       .  A
O1005     Cr1013   2.022       .  S
O1005      C1006   1.271       .  A
C1006      O1007   1.256       .  A
C1006      C1264   1.472       .  S
O1007     Cr1014   1.958       .  S
O1008     Cr1014   1.982       .  S
O1008      C1009   1.263       .  A
C1009      O1010   1.265       .  A
C1009      C1288   1.466       .  S
O1010     Cr1015   1.980       .  S
O1011     Cr1015   2.010       .  S
O1011      C1012   1.257       .  A
C1012      C1384   1.474       .  S
Cr1013     O1016   1.767       .  S
Cr1014     O1016   1.777       .  S
Cr1015     O1016   1.775       .  S
O1017     Cr1035   2.032       .  S
O1017      C1025   1.279       .  A
O1018     Cr1035   1.985       .  S
O1018      C1019   1.260       .  A
C1019      O1020   1.265       .  A
C1019      C1273   1.507       .  S
O1020     Cr1036   2.003       .  S
O1021     Cr1036   2.014       .  S
O1021      C1022   1.267       .  A
C1022      O1023   1.256       .  A
C1022      C1213   1.477       .  S
O1023     Cr1037   1.973       .  S
O1024     Cr1037   1.949       .  S
O1024      C1025   1.263       .  A
C1025      C1192   1.489       .  S
O1026     Cr1035   1.996       .  S
O1026      C1034   1.254       .  A
O1027     Cr1035   2.007       .  S
O1027      C1028   1.268       .  A
C1028      O1029   1.259       .  A
C1028      C1177   1.487       .  S
O1029     Cr1036   1.966       .  S
O1030     Cr1036   1.985       .  S
O1030      C1031   1.266       .  A
C1031      O1032   1.268       .  A
C1031      C1168   1.466       .  S
O1032     Cr1037   1.981       .  S
O1033     Cr1037   1.999       .  S
O1033      C1034   1.250       .  A
C1034      C1204   1.480   1_565  S
Cr1035     O1038   1.773       .  S
Cr1036     O1038   1.781       .  S
Cr1037     O1038   1.780       .  S
O1039     Cr1057   2.030       .  S
O1039      C1047   1.277       .  A
O1040     Cr1057   1.969       .  S
O1040      C1041   1.255       .  A
C1041      O1042   1.263       .  A
C1041      C1321   1.499       .  S
O1042     Cr1058   2.008       .  S
O1043     Cr1058   2.008       .  S
O1043      C1044   1.272       .  A
C1044      O1045   1.265       .  A
O1045     Cr1059   1.992       .  S
O1046     Cr1059   1.948       .  S
O1046      C1047   1.261       .  A
C1047      C1189   1.475       .  S
O1048     Cr1057   1.977       .  S
O1048      C1056   1.252       .  A
O1049     Cr1057   2.019       .  S
O1049      C1050   1.271       .  A
C1050      O1051   1.260       .  A
C1050      C1180   1.491       .  S
O1051     Cr1058   1.960       .  S
O1052     Cr1058   1.978       .  S
O1052      C1053   1.259       .  A
C1053      O1054   1.266       .  A
C1053      C1129   1.477       .  S
O1054     Cr1059   1.991       .  S
O1055     Cr1059   2.007       .  S
O1055      C1056   1.256       .  A
C1056      C1141   1.480   1_565  S
Cr1057     O1060   1.771       .  S
Cr1058     O1060   1.780       .  S
Cr1059     O1060   1.773       .  S
O1061     Cr1079   1.950       .  S
O1061      C1069   1.260       .  A
O1062     Cr1079   1.984       .  S
O1062      C1063   1.261       .  A
C1063      O1064   1.270       .  A
O1064     Cr1080   2.008       .  S
O1065     Cr1080   2.022       .  S
O1065      C1066   1.266       .  A
C1066      O1067   1.259       .  A
C1066      C1240   1.508       .  S
O1067     Cr1081   1.978       .  S
O1068     Cr1081   2.046       .  S
O1068      C1069   1.279       .  A
C1069      C1105   1.477       .  S
O1070     Cr1079   2.010       .  S
O1070      C1078   1.256       .  A
O1071     Cr1079   1.988       .  S
O1071      C1072   1.267       .  A
C1072      O1073   1.265       .  A
C1072      C1132   1.485       .  S
O1073     Cr1080   1.996       .  S
O1074     Cr1080   1.963       .  S
O1074      C1075   1.258       .  A
C1075      O1076   1.274       .  A
C1075      C1117   1.499       .  S
O1076     Cr1081   2.027       .  S
O1077     Cr1081   1.990       .  S
O1077      C1078   1.255       .  A
C1078      C1216   1.490   1_545  S
Cr1079     O1082   1.778       .  S
Cr1080     O1082   1.780       .  S
Cr1081     O1082   1.773       .  S
O1083     Cr1101   2.005       .  S
O1083      C1091   1.268       .  A
O1084     Cr1101   1.969       .  S
O1084      C1085   1.253       .  A
C1085      O1086   1.265       .  A
C1085      C1144   1.478       .  S
O1086     Cr1102   2.016       .  S
O1087     Cr1102   1.989       .  S
O1087      C1088   1.263       .  A
C1088      O1089   1.260       .  A
C1088      C1225   1.473       .  S
O1089     Cr1103   1.981       .  S
O1090     Cr1103   1.992       .  S
O1090      C1091   1.269       .  A
C1091      C1108   1.494       .  S
O1092     Cr1101   2.006       .  S
O1092      C1100   1.262       .  A
O1093     Cr1101   2.009       .  S
O1093      C1094   1.268       .  A
C1094      O1095   1.255       .  A
C1094      C1165   1.476       .  S
O1095     Cr1102   1.947       .  S
O1096     Cr1102   2.003       .  S
O1096      C1097   1.266       .  A
C1097      O1098   1.273       .  A
C1097      C1120   1.494       .  S
O1098     Cr1103   2.002       .  S
O1099     Cr1103   1.998       .  S
O1099      C1100   1.261       .  A
C1100      C1156   1.496   1_545  S
Cr1101     O1104   1.769       .  S
Cr1102     O1104   1.777       .  S
Cr1103     O1104   1.760       .  S
C1105      C1106   1.400       .  A
C1105      C1110   1.411       .  A
C1106      C1107   1.406       .  A
C1106      H1111   1.083       .  S
C1107      C1108   1.423       .  A
C1107      C1114   1.445       .  S
C1108      C1109   1.405       .  A
C1109      C1110   1.401       .  A
C1109      H1112   1.082       .  S
C1110      C1113   1.445       .  S
C1113      N1115   1.157       .  T
C1114      N1116   1.158   1_545  T
C1117      C1118   1.404       .  A
C1117      C1122   1.423       .  A
C1118      C1583   1.404   1_554  A
C1118      H1123   1.086       .  S
C1119      C1582   1.404       .  A
C1119      C1120   1.422       .  A
C1119      C1126   1.444       .  S
C1120      C1121   1.399       .  A
C1121      C1586   1.401       .  A
C1121      H1124   1.087       .  S
C1122      C1585   1.401   1_554  A
C1122      C1125   1.441   1_554  S
C1125      N1127   1.156       .  T
C1126      N1128   1.157       .  T
C1129      C1134   1.408   1_565  A
C1130      C1595   1.398       .  A
C1130      H1135   1.085       .  S
C1131      C1594   1.398   1_554  A
C1131      C1132   1.410   1_565  A
C1131      C1138   1.444       .  S
C1133      C1598   1.394   1_554  A
C1133      H1136   1.081       .  S
C1134      C1597   1.394       .  A
C1134      C1137   1.444       .  S
C1137      N1139   1.157       .  T
C1138      N1140   1.157       .  T
C1141      C1142   1.406       .  A
C1141      C1146   1.410       .  A
C1142      C1143   1.406       .  A
C1142      H1147   1.087       .  S
C1143      C1144   1.413       .  A
C1143      C1150   1.444       .  S
C1144      C1145   1.404       .  A
C1145      C1146   1.398       .  A
C1145      H1148   1.087       .  S
C1146      C1149   1.444       .  S
C1149      N1151   1.157   1_545  T
C1150      N1152   1.158       .  T
C1153      C1154   1.402       .  A
C1153      C1158   1.414       .  A
C1154      C1155   1.402       .  A
C1155      C1156   1.418       .  A
C1155      C1162   1.446       .  S
C1156      C1157   1.406       .  A
C1157      C1158   1.412       .  A
C1157      H1160   1.083       .  S
C1158      C1161   1.443       .  S
C1161      N1163   1.157       .  T
C1162      N1164   1.158   1_565  T
C1165      C1166   1.411       .  A
C1165      C1170   1.410   1_545  A
C1166      C1631   1.396       .  A
C1166      H1171   1.084       .  S
C1167      C1630   1.396       .  A
C1167      C1168   1.405   1_545  A
C1167      C1174   1.445       .  S
C1168      C1169   1.405       .  A
C1169      C1634   1.392   1_554  A
C1169      H1172   1.086       .  S
C1170      C1633   1.392       .  A
C1170      C1173   1.444       .  S
C1173      N1175   1.157       .  T
C1174      N1176   1.157       .  T
C1177      C1178   1.409       .  A
C1177      C1182   1.412       .  A
C1178      C1643   1.402   1_554  A
C1178      H1183   1.085       .  S
C1179      C1642   1.403       .  A
C1179      C1180   1.414       .  A
C1179      C1186   1.444       .  S
C1180      C1181   1.410       .  A
C1181      C1646   1.399       .  A
C1181      H1184   1.085       .  S
C1182      C1645   1.399       .  A
C1182      C1185   1.445       .  S
C1185      N1187   1.157       .  T
C1186      N1188   1.157       .  T
C1189      C1190   1.405       .  A
C1189      C1194   1.406       .  A
C1190      C1191   1.397       .  A
C1190      H1195   1.085       .  S
C1191      C1192   1.414       .  A
C1191      C1198   1.444       .  S
C1192      C1193   1.413       .  A
C1193      C1194   1.399       .  A
C1193      H1196   1.084       .  S
C1194      C1197   1.445       .  S
C1197      N1199   1.157       .  T
C1198      N1200   1.157       .  T
C1201      C1202   1.404       .  A
C1201      C1206   1.412       .  A
C1202      C1203   1.404       .  A
C1203      C1204   1.412       .  A
C1203      C1210   1.442       .  S
C1204      C1205   1.402       .  A
C1205      C1206   1.404       .  A
C1205      H1208   1.082       .  S
C1206      C1209   1.443       .  S
C1209      N1211   1.157       .  T
C1210      N1212   1.157       .  T
C1213      C1214   1.406       .  A
C1213      C1218   1.410       .  A
C1214      C1215   1.402       .  A
C1214      H1219   1.085       .  S
C1215      C1216   1.411       .  A
C1215      C1222   1.445       .  S
C1216      C1217   1.409       .  A
C1217      C1218   1.410       .  A
C1217      H1220   1.084       .  S
C1218      C1221   1.443       .  S
C1221      N1223   1.157       .  T
C1222      N1224   1.157   1_565  T
C1225      C1226   1.401       .  A
C1225      C1230   1.411       .  A
C1226      C1227   1.403       .  A
C1226      H1231   1.087       .  S
C1227      C1228   1.421       .  A
C1227      C1234   1.445       .  S
C1228      C1229   1.405       .  A
C1229      C1230   1.392       .  A
C1229      H1232   1.087       .  S
C1230      C1233   1.445       .  S
C1233      N1235   1.157       .  T
C1234      N1236   1.158       .  T
C1237      C1238   1.411       .  A
C1237      C1242   1.414       .  A
C1238      C1239   1.411       .  A
C1238      H1243   1.084       .  S
C1239      C1240   1.418       .  A
C1239      C1246   1.444       .  S
C1240      C1241   1.411       .  A
C1241      C1242   1.407       .  A
C1241      H1244   1.084       .  S
C1242      C1245   1.444       .  S
C1245      N1247   1.157       .  T
C1246      N1248   1.157       .  T
C1249      C1250   1.398       .  A
C1249      C1254   1.411       .  A
C1250      C1715   1.398       .  A
C1250      H1255   1.087       .  S
C1251      C1714   1.399   1_554  A
C1251      C1252   1.416       .  A
C1251      C1258   1.445       .  S
C1252      C1253   1.402       .  A
C1253      C1718   1.403   1_554  A
C1253      H1256   1.087       .  S
C1254      C1717   1.404       .  A
C1254      C1257   1.444       .  S
C1257      N1259   1.157       .  T
C1258      N1260   1.157       .  T
C1261      C1262   1.404       .  A
C1261      C1266   1.414       .  A
C1262      C1263   1.409       .  A
C1262      H1267   1.085       .  S
C1263      C1264   1.414       .  A
C1263      C1270   1.443       .  S
C1264      C1265   1.394       .  A
C1265      C1266   1.394       .  A
C1265      H1268   1.087       .  S
C1266      C1269   1.438       .  S
C1269      N1271   1.155       .  T
C1270      N1272   1.157       .  T
C1273      C1274   1.410       .  A
C1273      C1278   1.423       .  A
C1274      C1275   1.404       .  A
C1274      H1279   1.085       .  S
C1275      C1276   1.414       .  A
C1275      C1282   1.445       .  S
C1276      C1277   1.403       .  A
C1277      C1278   1.409       .  A
C1277      H1280   1.085       .  S
C1278      C1281   1.443       .  S
C1281      N1283   1.157       .  T
C1282      N1284   1.157       .  T
C1285      C1286   1.409   1_655  A
C1285      C1290   1.406       .  A
C1286      H1291   1.084       .  S
C1287      C1288   1.405       .  A
C1287      C1294   1.445       .  S
C1288      C1289   1.407       .  A
C1289      H1292   1.084       .  S
C1290      C1293   1.444       .  S
C1293      N1295   1.157       .  T
C1294      N1296   1.157       .  T
C1297      C1298   1.410       .  A
C1297      C1302   1.409       .  A
C1298      C1299   1.411       .  A
C1298      H1303   1.085       .  S
C1299      C1300   1.411       .  A
C1299      C1306   1.444       .  S
C1300      C1301   1.407       .  A
C1301      C1302   1.403       .  A
C1301      H1304   1.085       .  S
C1302      C1305   1.444       .  S
C1305      N1307   1.157       .  T
C1306      N1308   1.158       .  T
C1309      C1310   1.408       .  A
C1309      C1314   1.415       .  A
C1310      C1311   1.408       .  A
C1310      H1315   1.085       .  S
C1311      C1312   1.410       .  A
C1311      C1318   1.441       .  S
C1312      C1313   1.404       .  A
C1313      C1314   1.405       .  A
C1313      H1316   1.085       .  S
C1317      N1319   1.157   1_455  T
C1318      N1320   1.157       .  T
C1321      C1322   1.411       .  A
C1321      C1326   1.421       .  A
C1322      C1323   1.402       .  A
C1322      H1327   1.084       .  S
C1323      C1324   1.409       .  A
C1323      C1330   1.445       .  S
C1324      C1325   1.401       .  A
C1325      C1326   1.405       .  A
C1325      H1328   1.084       .  S
C1326      C1329   1.444       .  S
C1329      N1331   1.157       .  T
C1330      N1332   1.157       .  T
C1333      C1334   1.398       .  A
C1333      C1338   1.419       .  A
C1334      C1335   1.394       .  A
C1334      H1339   1.084       .  S
C1335      C1336   1.418       .  A
C1335      C1342   1.445       .  S
C1336      C1337   1.397       .  A
C1337      C1338   1.392       .  A
C1337      H1340   1.084       .  S
C1338      C1341   1.445       .  S
C1341      N1343   1.157       .  T
C1342      N1344   1.157       .  T
C1345      C1346   1.413       .  A
C1345      C1350   1.417       .  A
C1346      C1347   1.400       .  A
C1346      H1351   1.082       .  S
C1347      C1348   1.403       .  A
C1347      C1354   1.444       .  S
C1348      C1349   1.408       .  A
C1349      C1350   1.410       .  A
C1349      H1352   1.083       .  S
C1350      C1353   1.443       .  S
C1353      N1355   1.157       .  T
C1354      N1356   1.157       .  T
C1357      C1358   1.399       .  A
C1357      C1362   1.412       .  A
C1358      C1823   1.400       .  A
C1358      H1363   1.085       .  S
C1359      C1822   1.400   1_554  A
C1359      C1360   1.423       .  A
C1359      C1366   1.445       .  S
C1360      C1361   1.410       .  A
C1361      C1826   1.407   1_554  A
C1361      H1364   1.084       .  S
C1362      C1825   1.407       .  A
C1362      C1365   1.444       .  S
C1365      N1367   1.157       .  T
C1366      N1368   1.157       .  T
C1369      C1370   1.406       .  A
C1369      C1374   1.413       .  A
C1370      C1371   1.398       .  A
C1370      H1375   1.087       .  S
C1371      C1372   1.408       .  A
C1372      C1373   1.408       .  A
C1373      C1374   1.410       .  A
C1373      H1376   1.086       .  S
C1374      C1377   1.443       .  S
C1377      N1379   1.158       .  T
C1378      N1380   1.157       .  T
C1381      C1382   1.408       .  A
C1381      C1386   1.419       .  A
C1382      C1383   1.400       .  A
C1382      H1387   1.084       .  S
C1383      C1384   1.408       .  A
C1383      C1390   1.445       .  S
C1384      C1385   1.401       .  A
C1385      C1386   1.405       .  A
C1385      H1388   1.084       .  S
C1386      C1389   1.443       .  S
C1389      N1391   1.157       .  T
C1390      N1392   1.157       .  T
O1393     Cr1411   2.016       .  S
O1393      C1401   1.274       .  A
O1394     Cr1411   1.961       .  S
O1394      C1395   1.255       .  A
C1395      O1396   1.266       .  A
C1395      C1845   1.489       .  S
O1396     Cr1412   2.019       .  S
O1397     Cr1412   1.990       .  S
O1397      C1398   1.264       .  A
C1398      O1399   1.262       .  A
C1398      C1788   1.477       .  S
O1399     Cr1413   1.995       .  S
O1400     Cr1413   1.989       .  S
O1400      C1401   1.269       .  A
C1401      C1821   1.483       .  S
O1402     Cr1411   2.001       .  S
O1402      C1410   1.257       .  A
O1403     Cr1411   2.014       .  S
O1403      C1404   1.269       .  A
C1404      O1405   1.250       .  A
C1404      C1797   1.471       .  S
O1405     Cr1412   1.934       .  S
O1406     Cr1412   2.001       .  S
O1406      C1407   1.266       .  A
C1407      O1408   1.270       .  A
C1407      C1812   1.479       .  S
O1408     Cr1413   2.007       .  S
O1409     Cr1413   1.997       .  S
O1409      C1410   1.259       .  A
C1410      C1833   1.487       .  S
Cr1411     O1414   1.767       .  S
Cr1412     O1414   1.777       .  S
Cr1413     O1414   1.760       .  S
O1415     Cr1433   2.006       .  S
O1415      C1423   1.270       .  A
O1416     Cr1433   1.971       .  S
O1416      C1417   1.256       .  A
C1417      O1418   1.269       .  A
O1418     Cr1434   2.030       .  S
O1419     Cr1434   1.999       .  S
O1419      C1420   1.269       .  A
C1420      O1421   1.264       .  A
C1420      C1740   1.492       .  S
O1421     Cr1435   2.000       .  S
O1422     Cr1435   1.996       .  S
O1422      C1423   1.271       .  A
C1423      C1824   1.499       .  S
O1424     Cr1433   2.004       .  S
O1424      C1432   1.260       .  A
O1425     Cr1433   2.010       .  S
O1425      C1426   1.267       .  A
C1426      O1427   1.255       .  A
C1426      C1749   1.471       .  S
O1427     Cr1434   1.947       .  S
O1428     Cr1434   1.999       .  S
O1428      C1429   1.267       .  A
C1429      O1430   1.273       .  A
C1429      C1809   1.500       .  S
O1430     Cr1435   2.017       .  S
O1431     Cr1435   2.003       .  S
O1431      C1432   1.260       .  A
C1432      C1764   1.490       .  S
Cr1433     O1436   1.769       .  S
Cr1434     O1436   1.776       .  S
Cr1435     O1436   1.766       .  S
O1437     Cr1455   2.036       .  S
O1437      C1445   1.278       .  A
O1438     Cr1455   1.983       .  S
O1438      C1439   1.257       .  A
C1439      O1440   1.263       .  A
C1439      C1701   1.506       .  S
O1440     Cr1456   2.011       .  S
O1441     Cr1456   2.007       .  S
O1441      C1442   1.272       .  A
C1442      O1443   1.265       .  A
C1442      C1761   1.483       .  S
O1443     Cr1457   1.996       .  S
O1444     Cr1457   1.948       .  S
O1444      C1445   1.260       .  A
C1445      C1716   1.479       .  S
O1446     Cr1455   1.986       .  S
O1446      C1454   1.254       .  A
O1447     Cr1455   2.032       .  S
O1447      C1448   1.273       .  A
C1448      O1449   1.259       .  A
C1448      C1725   1.480       .  S
O1449     Cr1456   1.962       .  S
O1450     Cr1456   1.982       .  S
O1450      C1451   1.257       .  A
C1451      O1452   1.265       .  A
C1451      C1800   1.469       .  S
O1452     Cr1457   1.982       .  S
O1453     Cr1457   2.011       .  S
O1453      C1454   1.257       .  A
C1454      C1776   1.486       .  S
Cr1455     O1458   1.784       .  S
Cr1456     O1458   1.786       .  S
Cr1457     O1458   1.782       .  S
O1459     Cr1477   2.036       .  S
O1459      C1467   1.277       .  A
O1460     Cr1477   1.963       .  S
O1460      C1461   1.253       .  A
C1461      O1462   1.262       .  A
C1461      C1692   1.487       .  S
O1462     Cr1478   1.989       .  S
O1463     Cr1478   1.991       .  S
O1463      C1464   1.263       .  A
C1464      O1465   1.262       .  A
O1465     Cr1479   1.989       .  S
O1466     Cr1479   1.953       .  S
O1466      C1467   1.259       .  A
C1467      C1713   1.470       .  S
O1468     Cr1477   1.976       .  S
O1468      C1476   1.250       .  A
O1469     Cr1477   2.022       .  S
O1469      C1470   1.271       .  A
C1470      O1471   1.255       .  A
C1470      C1728   1.471       .  S
O1471     Cr1478   1.955       .  S
O1472     Cr1478   1.984       .  S
O1472      C1473   1.264       .  A
C1473      O1474   1.265       .  A
C1473      C1752   1.466       .  S
O1474     Cr1479   1.979       .  S
O1475     Cr1479   2.009       .  S
O1475      C1476   1.257       .  A
C1476      C1848   1.473       .  S
Cr1477     O1480   1.767       .  S
Cr1478     O1480   1.776       .  S
Cr1479     O1480   1.775       .  S
O1481     Cr1499   2.032       .  S
O1481      C1489   1.279       .  A
O1482     Cr1499   1.985       .  S
O1482      C1483   1.260       .  A
C1483      O1484   1.265       .  A
C1483      C1737   1.508       .  S
O1484     Cr1500   2.003       .  S
O1485     Cr1500   2.015       .  S
O1485      C1486   1.267       .  A
C1486      O1487   1.256       .  A
C1486      C1677   1.478       .  S
O1487     Cr1501   1.973       .  S
O1488     Cr1501   1.947       .  S
O1488      C1489   1.263       .  A
C1489      C1656   1.488       .  S
O1490     Cr1499   1.996       .  S
O1490      C1498   1.254       .  A
O1491     Cr1499   2.008       .  S
O1491      C1492   1.268       .  A
C1492      O1493   1.259       .  A
C1492      C1641   1.488       .  S
O1493     Cr1500   1.967       .  S
O1494     Cr1500   1.986       .  S
O1494      C1495   1.266       .  A
C1495      O1496   1.268       .  A
C1495      C1632   1.466       .  S
O1496     Cr1501   1.981       .  S
O1497     Cr1501   2.000       .  S
O1497      C1498   1.251       .  A
C1498      C1668   1.481   1_565  S
Cr1499     O1502   1.773       .  S
Cr1500     O1502   1.781       .  S
Cr1501     O1502   1.779       .  S
O1503     Cr1521   2.031       .  S
O1503      C1511   1.277       .  A
O1504     Cr1521   1.969       .  S
O1504      C1505   1.255       .  A
C1505      O1506   1.264       .  A
C1505      C1785   1.498       .  S
O1506     Cr1522   2.007       .  S
O1507     Cr1522   2.008       .  S
O1507      C1508   1.272       .  A
C1508      O1509   1.265       .  A
O1509     Cr1523   1.991       .  S
O1510     Cr1523   1.946       .  S
O1510      C1511   1.261       .  A
C1511      C1653   1.475       .  S
O1512     Cr1521   1.977       .  S
O1512      C1520   1.252       .  A
O1513     Cr1521   2.019       .  S
O1513      C1514   1.271       .  A
C1514      O1515   1.260       .  A
C1514      C1644   1.490       .  S
O1515     Cr1522   1.959       .  S
O1516     Cr1522   1.979       .  S
O1516      C1517   1.260       .  A
C1517      O1518   1.266       .  A
C1517      C1593   1.477       .  S
O1518     Cr1523   1.990       .  S
O1519     Cr1523   2.007       .  S
O1519      C1520   1.256       .  A
C1520      C1605   1.480   1_565  S
Cr1521     O1524   1.770       .  S
Cr1522     O1524   1.779       .  S
Cr1523     O1524   1.773       .  S
O1525     Cr1543   1.951       .  S
O1525      C1533   1.260       .  A
O1526     Cr1543   1.984       .  S
O1526      C1527   1.261       .  A
C1527      O1528   1.270       .  A
O1528     Cr1544   2.008       .  S
O1529     Cr1544   2.022       .  S
O1529      C1530   1.266       .  A
C1530      O1531   1.260       .  A
C1530      C1704   1.509       .  S
O1531     Cr1545   1.979       .  S
O1532     Cr1545   2.046       .  S
O1532      C1533   1.279       .  A
C1533      C1569   1.477       .  S
O1534     Cr1543   2.011       .  S
O1534      C1542   1.256       .  A
O1535     Cr1543   1.989       .  S
O1535      C1536   1.267       .  A
C1536      O1537   1.265       .  A
C1536      C1596   1.485       .  S
O1537     Cr1544   1.996       .  S
O1538     Cr1544   1.963       .  S
O1538      C1539   1.258       .  A
C1539      O1540   1.274       .  A
C1539      C1581   1.499       .  S
O1540     Cr1545   2.027       .  S
O1541     Cr1545   1.991       .  S
O1541      C1542   1.255       .  A
C1542      C1680   1.491   1_545  S
Cr1543     O1546   1.778       .  S
Cr1544     O1546   1.781       .  S
Cr1545     O1546   1.773       .  S
O1547     Cr1565   2.005       .  S
O1547      C1555   1.269       .  A
O1548     Cr1565   1.969       .  S
O1548      C1549   1.253       .  A
C1549      O1550   1.265       .  A
C1549      C1608   1.478       .  S
O1550     Cr1566   2.015       .  S
O1551     Cr1566   1.989       .  S
O1551      C1552   1.263       .  A
C1552      O1553   1.260       .  A
C1552      C1689   1.474       .  S
O1553     Cr1567   1.981       .  S
O1554     Cr1567   1.992       .  S
O1554      C1555   1.269       .  A
C1555      C1572   1.494       .  S
O1556     Cr1565   2.005       .  S
O1556      C1564   1.262       .  A
O1557     Cr1565   2.010       .  S
O1557      C1558   1.268       .  A
C1558      O1559   1.255       .  A
C1558      C1629   1.477       .  S
O1559     Cr1566   1.947       .  S
O1560     Cr1566   2.003       .  S
O1560      C1561   1.266       .  A
C1561      O1562   1.273       .  A
C1561      C1584   1.493       .  S
O1562     Cr1567   2.002       .  S
O1563     Cr1567   1.999       .  S
O1563      C1564   1.261       .  A
C1564      C1620   1.496   1_545  S
Cr1565     O1568   1.769       .  S
Cr1566     O1568   1.777       .  S
Cr1567     O1568   1.760       .  S
C1569      C1570   1.400       .  A
C1569      C1574   1.411       .  A
C1570      C1571   1.406       .  A
C1570      H1575   1.083       .  S
C1571      C1572   1.423       .  A
C1571      C1578   1.445       .  S
C1572      C1573   1.405       .  A
C1573      C1574   1.401       .  A
C1573      H1576   1.082       .  S
C1574      C1577   1.444       .  S
C1577      N1579   1.157       .  T
C1578      N1580   1.158   1_545  T
C1581      C1582   1.404       .  A
C1581      C1586   1.423       .  A
C1582      H1587   1.086       .  S
C1583      C1584   1.422       .  A
C1583      C1590   1.444   1_556  S
C1584      C1585   1.399       .  A
C1585      H1588   1.087       .  S
C1586      C1589   1.441       .  S
C1589      N1591   1.156       .  T
C1590      N1592   1.157       .  T
C1593      C1598   1.408   1_565  A
C1594      H1599   1.085       .  S
C1595      C1596   1.410   1_565  A
C1595      C1602   1.444       .  S
C1597      H1600   1.082       .  S
C1598      C1601   1.444       .  S
C1601      N1603   1.157       .  T
C1602      N1604   1.157       .  T
C1605      C1606   1.406       .  A
C1605      C1610   1.410       .  A
C1606      C1607   1.406       .  A
C1606      H1611   1.087       .  S
C1607      C1608   1.413       .  A
C1607      C1614   1.444       .  S
C1608      C1609   1.404       .  A
C1609      C1610   1.398       .  A
C1609      H1612   1.087       .  S
C1610      C1613   1.444       .  S
C1613      N1615   1.157   1_545  T
C1614      N1616   1.158       .  T
C1617      C1618   1.402       .  A
C1617      C1622   1.414       .  A
C1618      C1619   1.402       .  A
C1619      C1620   1.418       .  A
C1619      C1626   1.446       .  S
C1620      C1621   1.406       .  A
C1621      C1622   1.412       .  A
C1621      H1624   1.083       .  S
C1622      C1625   1.443       .  S
C1625      N1627   1.157       .  T
C1626      N1628   1.157   1_565  T
C1629      C1630   1.411   1_556  A
C1629      C1634   1.411   1_545  A
C1630      H1635   1.084       .  S
C1631      C1632   1.405   1_545  A
C1631      C1638   1.445       .  S
C1632      C1633   1.405       .  A
C1633      H1636   1.086       .  S
C1634      C1637   1.444       .  S
C1637      N1639   1.157       .  T
C1638      N1640   1.157       .  T
C1641      C1642   1.409       .  A
C1641      C1646   1.412       .  A
C1642      H1647   1.085       .  S
C1643      C1644   1.413       .  A
C1643      C1650   1.444       .  S
C1644      C1645   1.410   1_556  A
C1645      H1648   1.085       .  S
C1646      C1649   1.445       .  S
C1649      N1651   1.157       .  T
C1650      N1652   1.157       .  T
C1653      C1654   1.405       .  A
C1653      C1658   1.406       .  A
C1654      C1655   1.397       .  A
C1654      H1659   1.085       .  S
C1655      C1656   1.414       .  A
C1655      C1662   1.444       .  S
C1656      C1657   1.413       .  A
C1657      C1658   1.399       .  A
C1657      H1660   1.084       .  S
C1658      C1661   1.445       .  S
C1661      N1663   1.157       .  T
C1662      N1664   1.157       .  T
C1665      C1666   1.404       .  A
C1665      C1670   1.412       .  A
C1666      C1667   1.405       .  A
C1667      C1668   1.412       .  A
C1667      C1674   1.443       .  S
C1668      C1669   1.402       .  A
C1669      C1670   1.404       .  A
C1669      H1672   1.082       .  S
C1670      C1673   1.443       .  S
C1673      N1675   1.157       .  T
C1674      N1676   1.157       .  T
C1677      C1678   1.406       .  A
C1677      C1682   1.411       .  A
C1678      C1679   1.402       .  A
C1678      H1683   1.085       .  S
C1679      C1680   1.411       .  A
C1679      C1686   1.445       .  S
C1680      C1681   1.409       .  A
C1681      C1682   1.411       .  A
C1681      H1684   1.084       .  S
C1682      C1685   1.443       .  S
C1685      N1687   1.157       .  T
C1686      N1688   1.157   1_565  T
C1689      C1690   1.402       .  A
C1689      C1694   1.411       .  A
C1690      C1691   1.404       .  A
C1690      H1695   1.087       .  S
C1691      C1692   1.422       .  A
C1691      C1698   1.445       .  S
C1692      C1693   1.405       .  A
C1693      C1694   1.392       .  A
C1693      H1696   1.087       .  S
C1694      C1697   1.445       .  S
C1697      N1699   1.157       .  T
C1698      N1700   1.158       .  T
C1701      C1702   1.411       .  A
C1701      C1706   1.414       .  A
C1702      C1703   1.412       .  A
C1702      H1707   1.084       .  S
C1703      C1704   1.419       .  A
C1703      C1710   1.444       .  S
C1704      C1705   1.411       .  A
C1705      C1706   1.407       .  A
C1705      H1708   1.084       .  S
C1706      C1709   1.444       .  S
C1709      N1711   1.157       .  T
C1710      N1712   1.157       .  T
C1713      C1714   1.398       .  A
C1713      C1718   1.411       .  A
C1714      H1719   1.087       .  S
C1715      C1716   1.416       .  A
C1715      C1722   1.445       .  S
C1716      C1717   1.403       .  A
C1717      H1720   1.086       .  S
C1718      C1721   1.443       .  S
C1721      N1723   1.157       .  T
C1722      N1724   1.157       .  T
C1725      C1726   1.404       .  A
C1725      C1730   1.414       .  A
C1726      C1727   1.408       .  A
C1726      H1731   1.086       .  S
C1727      C1728   1.414       .  A
C1727      C1734   1.443       .  S
C1728      C1729   1.394       .  A
C1729      C1730   1.394       .  A
C1729      H1732   1.087       .  S
C1730      C1733   1.438       .  S
C1733      N1735   1.155       .  T
C1734      N1736   1.157       .  T
C1737      C1738   1.410       .  A
C1737      C1742   1.423       .  A
C1738      C1739   1.404       .  A
C1738      H1743   1.085       .  S
C1739      C1740   1.414       .  A
C1739      C1746   1.445       .  S
C1740      C1741   1.404       .  A
C1741      C1742   1.409       .  A
C1741      H1744   1.085       .  S
C1742      C1745   1.443       .  S
C1745      N1747   1.157       .  T
C1746      N1748   1.157       .  T
C1749      C1750   1.410   1_655  A
C1749      C1754   1.406       .  A
C1750      H1755   1.084       .  S
C1751      C1752   1.405       .  A
C1751      C1758   1.445       .  S
C1752      C1753   1.406       .  A
C1753      H1756   1.085       .  S
C1754      C1757   1.444       .  S
C1757      N1759   1.157       .  T
C1758      N1760   1.157       .  T
C1761      C1762   1.410       .  A
C1761      C1766   1.410       .  A
C1762      C1763   1.411       .  A
C1762      H1767   1.085       .  S
C1763      C1764   1.411       .  A
C1763      C1770   1.444       .  S
C1764      C1765   1.407       .  A
C1765      C1766   1.404       .  A
C1765      H1768   1.085       .  S
C1766      C1769   1.444       .  S
C1769      N1771   1.157       .  T
C1770      N1772   1.158       .  T
C1773      C1774   1.409       .  A
C1773      C1778   1.415       .  A
C1774      C1775   1.408       .  A
C1774      H1779   1.085       .  S
C1775      C1776   1.410       .  A
C1775      C1782   1.441       .  S
C1776      C1777   1.403       .  A
C1777      C1778   1.405       .  A
C1777      H1780   1.085       .  S
C1781      N1783   1.157   1_455  T
C1782      N1784   1.157       .  T
C1785      C1786   1.411       .  A
C1785      C1790   1.421       .  A
C1786      C1787   1.402       .  A
C1786      H1791   1.084       .  S
C1787      C1788   1.409       .  A
C1787      C1794   1.445       .  S
C1788      C1789   1.401       .  A
C1789      C1790   1.405       .  A
C1789      H1792   1.084       .  S
C1790      C1793   1.444       .  S
C1793      N1795   1.157       .  T
C1794      N1796   1.157       .  T
C1797      C1798   1.398       .  A
C1797      C1802   1.420       .  A
C1798      C1799   1.394       .  A
C1798      H1803   1.084       .  S
C1799      C1800   1.418       .  A
C1799      C1806   1.445       .  S
C1800      C1801   1.397       .  A
C1801      C1802   1.392       .  A
C1801      H1804   1.084       .  S
C1802      C1805   1.445       .  S
C1805      N1807   1.157       .  T
C1806      N1808   1.157       .  T
C1809      C1810   1.414       .  A
C1809      C1814   1.417       .  A
C1810      C1811   1.400       .  A
C1810      H1815   1.082       .  S
C1811      C1812   1.402       .  A
C1811      C1818   1.444       .  S
C1812      C1813   1.408       .  A
C1813      C1814   1.410       .  A
C1813      H1816   1.082       .  S
C1814      C1817   1.443       .  S
C1817      N1819   1.157       .  T
C1818      N1820   1.157       .  T
C1821      C1822   1.399       .  A
C1821      C1826   1.412       .  A
C1822      H1827   1.085       .  S
C1823      C1824   1.423       .  A
C1823      C1830   1.445       .  S
C1824      C1825   1.410       .  A
C1825      H1828   1.084       .  S
C1826      C1829   1.444       .  S
C1829      N1831   1.157       .  T
C1830      N1832   1.157       .  T
C1833      C1834   1.406       .  A
C1833      C1838   1.413       .  A
C1834      C1835   1.398       .  A
C1834      H1839   1.087       .  S
C1835      C1836   1.407       .  A
C1836      C1837   1.408       .  A
C1837      C1838   1.410       .  A
C1837      H1840   1.086       .  S
C1838      C1841   1.444       .  S
C1841      N1843   1.158       .  T
C1842      N1844   1.157       .  T
C1845      C1846   1.408       .  A
C1845      C1850   1.419       .  A
C1846      C1847   1.400       .  A
C1846      H1851   1.084       .  S
C1847      C1848   1.407       .  A
C1847      C1854   1.445       .  S
C1848      C1849   1.401       .  A
C1849      C1850   1.404       .  A
C1849      H1852   1.084       .  S
C1850      C1853   1.443       .  S
C1853      N1855   1.157       .  T
C1854      N1856   1.157       .  T
