geometry optimzed in LAMMPS
_audit_creation_date              2020-12-01 
_audit_creation_method            'lammps2cif' 
_symmetry_space_group_name_H-M    'P1' 
_symmetry_Int_Tables_number       1 
_symmetry_cell_setting            triclinic 
loop_ 
_symmetry_equiv_pos_as_xyz 
  x,y,z 
_cell_length_a                    74.92760375 
_cell_length_b                    39.658083099987785 
_cell_length_c                    75.13185556179559 
_cell_angle_alpha                 89.86454017669963 
_cell_angle_beta                  90.08565307061482 
_cell_angle_gamma                 89.94119139425223 
loop_ 
_atom_site_label 
_atom_site_type_symbol 
_atom_site_fract_x 
_atom_site_fract_y 
_atom_site_fract_z 
_atom_site_charge 
Zr1        Zr  0.61150859  0.23320816  0.86061684     2.17500
O2          O  0.58773627  0.20493811  0.84425994    -0.51600
O3          O  0.61920345  0.17481579  0.86775481    -0.74800
O4          O  0.62039135  0.22261891  0.82964101    -0.81500
O5          O  0.57573021  0.25935407  0.89486630    -0.83300
O6          O  0.64802118  0.24476791  0.82609949    -0.78900
O7          O  0.58010474  0.23074787  0.86910184    -0.90600
O8          O  0.63796085  0.17298256  0.89150648    -0.76500
O9          O  0.64265824  0.22844765  0.86631150    -0.86000
O10         O  0.61507118  0.23328202  0.89218727    -0.85700
O11         O  0.62403970  0.28229114  0.84640585    -0.72400
O12         O  0.59940274  0.28587204  0.87076789    -0.84600
Zr13       Zr  0.64836125  0.33064430  0.89404635     2.26400
Zr14       Zr  0.65534686  0.27715252  0.85248053     2.06300
Zr15       Zr  0.60373630  0.28632078  0.90224396     2.10000
Zr16       Zr  0.64626270  0.23006344  0.89785366     1.78800
O17         O  0.57997597  0.32708817  0.90736529    -0.93400
O18         O  0.67397788  0.19990967  0.89192879    -0.41200
O19         O  0.63495584  0.28264650  0.90819495    -0.77800
O20         O  0.66021372  0.27727169  0.88409111    -0.96500
O21         O  0.64422982  0.33058863  0.86255972    -0.89800
O22         O  0.61698469  0.33520937  0.88898834    -0.92700
C23         C  0.62853995  0.15897861  0.87944321     1.01100
C24         C  0.57019323  0.24108609  0.88194027     1.14000
C25         C  0.63433956  0.22878668  0.82020840     1.04800
O26         O  0.67894765  0.23575358  0.84818721    -0.94800
O27         O  0.68319702  0.30543739  0.85850375    -0.90600
O28         O  0.67989382  0.33266460  0.88491057    -0.83700
C29         C  0.68930817  0.32249118  0.87161618     1.11400
O30         O  0.58955245  0.33044793  0.83497321    -0.96800
Zr31       Zr  0.61290146  0.33449782  0.85754365     1.88900
O32         O  0.64229333  0.38926276  0.88572756    -0.73400
O33         O  0.66392906  0.31021443  0.82649752    -0.52700
O34         O  0.62343929  0.35437575  0.82870168    -0.97400
O35         O  0.58552913  0.36424412  0.86544178    -0.54600
O36         O  0.62250556  0.39156648  0.86284381    -0.74000
C37         C  0.63295246  0.40540433  0.87413885     0.98400
O38         O  0.66740031  0.36078241  0.91506432    -0.62800
O39         O  0.59644388  0.25261633  0.92841496    -0.57600
O40         O  0.63978513  0.33708000  0.92543924    -0.94300
O41         O  0.61228554  0.31458287  0.92928885    -0.92700
O42         O  0.63587200  0.20877771  0.92644241    -0.93000
O43         O  0.66864226  0.23725494  0.92109186    -0.91800
C44         C  0.62602470  0.33023726  0.93508467     1.17200
H45         H  0.60874217  0.21468226  0.89757273     0.33200
H46         H  0.67266107  0.27427907  0.88697772     0.44000
H47         H  0.61222636  0.35547624  0.89428901     0.37600
H48         H  0.62159867  0.28314608  0.83379945     0.34000
H49         H  0.67397907  0.18075310  0.90040946     0.25800
H50         H  0.67256274  0.29582317  0.82004481     0.31800
H51         H  0.61754645  0.37647572  0.82690186     0.37700
H52         H  0.64149839  0.18628076  0.92764863     0.32100
H53         H  0.58562259  0.26332596  0.93340933     0.31000
H54         H  0.57197782  0.31605333  0.91608573     0.32700
H55         H  0.58898456  0.38032853  0.87489066     0.31700
H56         H  0.66862031  0.26176076  0.92359659     0.35700
H57         H  0.67705279  0.34484811  0.91835453     0.28400
H58         H  0.59240369  0.18213636  0.84164411     0.32600
H59         H  0.58699456  0.35388757  0.83116492     0.35500
H60         H  0.59227674  0.23064636  0.92379023     0.28100
H61         H  0.67333226  0.37878443  0.90810002     0.40900
H62         H  0.68581082  0.23598862  0.85945660     0.31000
H63         H  0.67215780  0.18932962  0.88014195     0.38600
H64         H  0.57815499  0.34715286  0.87161790     0.30500
H65         H  0.65319035  0.31063159  0.81880261     0.30500
H66         H  0.58683386  0.21647026  0.83258982     0.30800
Zr67       Zr  0.61129212  0.73503660  0.86093830     2.17500
O68         O  0.58835429  0.71167561  0.84144836    -0.51600
O69         O  0.61811366  0.67581854  0.86692654    -0.74800
O70         O  0.62146086  0.72651046  0.83012793    -0.81500
O71         O  0.57587049  0.75462681  0.89677271    -0.83300
O72         O  0.64785356  0.75339450  0.82637588    -0.78900
O73         O  0.58037453  0.72826080  0.87033466    -0.90600
O74         O  0.64013080  0.67238941  0.88756590    -0.76500
O75         O  0.64262695  0.73179847  0.86570760    -0.86000
O76         O  0.61541334  0.73134215  0.89237156    -0.85700
O77         O  0.62277803  0.78643558  0.84829533    -0.72400
O78         O  0.59840700  0.78528036  0.87343014    -0.84600
Zr79       Zr  0.64710351  0.82984393  0.89707074     2.26400
Zr80       Zr  0.65430493  0.78325800  0.85366806     2.06300
Zr81       Zr  0.60353926  0.78217106  0.90482089     2.10000
Zr82       Zr  0.64669750  0.72881716  0.89714131     1.78800
O83         O  0.57920024  0.82034872  0.91227108    -0.93400
O84         O  0.67551792  0.70378312  0.89005632    -0.41200
O85         O  0.63496170  0.77931150  0.90983723    -0.77800
O86         O  0.65972992  0.77879573  0.88512156    -0.96500
O87         O  0.64219855  0.83405192  0.86584278    -0.89800
O88         O  0.61560913  0.83316685  0.89285619    -0.92700
C89         C  0.62900072  0.65905059  0.87677064     1.01100
C90         C  0.57052624  0.73675744  0.88359915     1.14000
C91         C  0.63501115  0.73513355  0.82060564     1.04800
O92         O  0.67945471  0.74657547  0.84692940    -0.94800
O93         O  0.68166127  0.81329878  0.86001425    -0.90600
O94         O  0.67818016  0.83661425  0.88741702    -0.83700
C95         C  0.68760771  0.82893105  0.87370098     1.11400
O96         O  0.58700475  0.83148598  0.83942115    -0.96800
Zr97       Zr  0.61071593  0.83611424  0.86157544     1.88900
O98         O  0.64121351  0.88883303  0.89021940    -0.73400
O99         O  0.65983088  0.82227404  0.82919716    -0.52700
O100        O  0.62011765  0.86241286  0.83378156    -0.97400
O101        O  0.58304685  0.86370990  0.87062200    -0.54600
O102        O  0.61968247  0.89244793  0.86917777    -0.74000
C103        C  0.63093946  0.90576868  0.87987116     0.98400
O104        O  0.66601407  0.85361230  0.92034252    -0.62800
O105        O  0.59785811  0.74425743  0.92975056    -0.57600
O106        O  0.63790307  0.83733093  0.92799195    -0.94300
O107        O  0.61171592  0.80966383  0.93240822    -0.92700
O108        O  0.63548229  0.69977061  0.92344412    -0.93000
O109        O  0.66721480  0.73179157  0.92225796    -0.91800
C110        C  0.62476836  0.82793391  0.93779890     1.17200
H111        H  0.60947077  0.71172167  0.89715062     0.33200
H112        H  0.67230680  0.77663821  0.88763814     0.44000
H113        H  0.61077656  0.85253861  0.89895376     0.37600
H114        H  0.62015295  0.78817255  0.83574372     0.34000
H115        H  0.67595318  0.68266088  0.89710225     0.25800
H116        H  0.66965597  0.81180321  0.82234867     0.31800
H117        H  0.61402901  0.88458341  0.83353644     0.37700
H118        H  0.64241714  0.67852769  0.92406373     0.32100
H119        H  0.58736490  0.75400928  0.93586274     0.31000
H120        H  0.57315151  0.80951639  0.92249893     0.32700
H121        H  0.58396486  0.88702049  0.86596198     0.31700
H122        H  0.67271728  0.75440824  0.92129857     0.35700
H123        H  0.67488648  0.83589386  0.92317814     0.28400
H124        H  0.59349301  0.69073383  0.83644274     0.32600
H125        H  0.58438452  0.85482692  0.83549576     0.35500
H126        H  0.59341318  0.72309751  0.92438866     0.28100
H127        H  0.67292367  0.87203215  0.91473353     0.40900
H128        H  0.68606100  0.74447218  0.85829951     0.31000
H129        H  0.67431613  0.69613246  0.87757833     0.38600
H130        H  0.58388093  0.86624631  0.88369095     0.30500
H131        H  0.64924926  0.82031574  0.82136015     0.30500
H132        H  0.58734792  0.72745278  0.83125624     0.30800
Zr133      Zr  0.61126499  0.18330096  0.64763044     2.17500
O134        O  0.58776252  0.20406293  0.66725031    -0.51600
O135        O  0.61563791  0.24297601  0.64057912    -0.74800
O136        O  0.62154753  0.19409384  0.67812870    -0.81500
O137        O  0.57566090  0.15853077  0.61332802    -0.83300
O138        O  0.64895041  0.17040018  0.68156007    -0.78900
O139        O  0.57977586  0.18610054  0.63944920    -0.90600
O140        O  0.63493044  0.24689097  0.61747073    -0.76500
O141        O  0.64243299  0.18956348  0.64234335    -0.86000
O142        O  0.61459989  0.18595364  0.61607255    -0.85700
O143        O  0.62490699  0.13386024  0.66051957    -0.72400
O144        O  0.59982224  0.13106725  0.63608692    -0.84600
Zr145      Zr  0.64934823  0.09048386  0.61171855     2.26400
Zr146      Zr  0.65618283  0.13994957  0.65455834     2.06300
Zr147      Zr  0.60396705  0.13336920  0.60455891     2.10000
Zr148      Zr  0.64573207  0.19140620  0.61083845     1.78800
O149        O  0.58225089  0.08896367  0.59908506    -0.93400
O150        O  0.67182661  0.22433949  0.61932904    -0.41200
O151        O  0.63519828  0.13931838  0.59915176    -0.77800
O152        O  0.66063743  0.14336711  0.62298238    -0.96500
O153        O  0.64554538  0.08728151  0.64318010    -0.89800
O154        O  0.61800715  0.08428624  0.61671722    -0.92700
C155        C  0.62434895  0.25989163  0.62885610     1.01100
C156        C  0.56987492  0.17578230  0.62657324     1.14000
C157        C  0.63546024  0.18692487  0.68745705     1.04800
O158        O  0.68082780  0.17809708  0.66078099    -0.94800
O159        O  0.68437199  0.11294255  0.64750349    -0.90600
O160        O  0.68104741  0.08907289  0.62020050    -0.83700
C161        C  0.69051760  0.09786458  0.63372043     1.11400
O162        O  0.59349947  0.08557838  0.67315462    -0.96800
Zr163      Zr  0.61426530  0.08234037  0.64822605     1.88900
O164        O  0.64296947  0.03054146  0.61717988    -0.73400
O165        O  0.66324192  0.10291509  0.67951728    -0.52700
O166        O  0.62737589  0.05571760  0.67443837    -0.97400
O167        O  0.58589149  0.05411013  0.64273866    -0.54600
O168        O  0.62198011  0.02648906  0.63874685    -0.74000
C169        C  0.63256211  0.01340266  0.62735682     0.98400
O170        O  0.66799182  0.05958395  0.59066313    -0.62800
O171        O  0.59345995  0.16746823  0.57960694    -0.57600
O172        O  0.64234383  0.09248652  0.57990735    -0.94300
O173        O  0.61373537  0.11037121  0.57613434    -0.92700
O174        O  0.63522597  0.21090598  0.58188651    -0.93000
O175        O  0.66904059  0.19277721  0.58829414    -0.91800
C176        C  0.62861198  0.09885536  0.57016424     1.17200
H177        H  0.60792789  0.20451388  0.61102685     0.33200
H178        H  0.67301109  0.14722160  0.62012170     0.44000
H179        H  0.61336743  0.06440677  0.61093475     0.37600
H180        H  0.62260468  0.13222798  0.67312968     0.34000
H181        H  0.67077588  0.24565170  0.61250769     0.25800
H182        H  0.67246437  0.11520118  0.68636914     0.31800
H183        H  0.62268306  0.03238618  0.67445111     0.37700
H184        H  0.63232559  0.19011895  0.57520758     0.32100
H185        H  0.58205174  0.15692617  0.57597634     0.31000
H186        H  0.57838519  0.09251873  0.58661458     0.32700
H187        H  0.58723835  0.03142067  0.64810956     0.31700
H188        H  0.67363028  0.16937756  0.58785791     0.35700
H189        H  0.67736659  0.07561196  0.58681646     0.28400
H190        H  0.59190954  0.22626383  0.67159759     0.32600
H191        H  0.59241606  0.06230911  0.67783375     0.35500
H192        H  0.58996026  0.18941172  0.58480053     0.28100
H193        H  0.67438272  0.04226963  0.59772604     0.40900
H194        H  0.68611986  0.18301695  0.64899142     0.31000
H195        H  0.66961848  0.23100268  0.63182558     0.38600
H196        H  0.58568115  0.04993633  0.62975899     0.30500
H197        H  0.65252291  0.10345619  0.68720115     0.30500
H198        H  0.58782612  0.18911545  0.67782784     0.30800
Zr199      Zr  0.61367124  0.68473638  0.64847852     2.17500
O200        O  0.59192581  0.71054280  0.66846407    -0.51600
O201        O  0.62065479  0.74362401  0.64221345    -0.74800
O202        O  0.62393184  0.69059001  0.67937774    -0.81500
O203        O  0.57797598  0.66935411  0.61259204    -0.83300
O204        O  0.64810257  0.65710128  0.68406442    -0.78900
O205        O  0.58270387  0.69369190  0.63957895    -0.90600
O206        O  0.64163646  0.74582883  0.62055282    -0.76500
O207        O  0.64519271  0.68420681  0.64451402    -0.86000
O208        O  0.61858346  0.68990561  0.61722568    -0.85700
O209        O  0.62309717  0.63104907  0.66031228    -0.72400
O210        O  0.59939762  0.63724863  0.63472878    -0.84600
Zr211      Zr  0.64658103  0.58757846  0.61098750     2.26400
Zr212      Zr  0.65477270  0.63040716  0.65567136     2.06300
Zr213      Zr  0.60521137  0.64175980  0.60354314     2.10000
Zr214      Zr  0.64995514  0.68875497  0.61323107     1.78800
O215        O  0.58044922  0.60628676  0.59411299    -0.93400
O216        O  0.67752971  0.71483647  0.62352984    -0.41200
O217        O  0.63674536  0.64081414  0.59910846    -0.77800
O218        O  0.66067267  0.63622830  0.62437171    -0.96500
O219        O  0.64098898  0.58235415  0.64211398    -0.89800
O220        O  0.61496841  0.58828583  0.61462673    -0.92700
C221        C  0.63074785  0.75981839  0.63139124     1.01100
C222        C  0.57280729  0.68627734  0.62616301     1.14000
C223        C  0.63612312  0.67790930  0.68945057     1.04800
O224        O  0.68002528  0.66552699  0.66406860    -0.94800
O225        O  0.68158580  0.59915511  0.64845323    -0.90600
O226        O  0.67757383  0.57866530  0.62046591    -0.83700
C227        C  0.68719463  0.58449969  0.63432888     1.11400
O228        O  0.58739299  0.59031125  0.66945917    -0.96800
Zr229      Zr  0.60943743  0.58417004  0.64579895     1.88900
O230        O  0.63813594  0.52887325  0.61694261    -0.73400
O231        O  0.66084238  0.58666003  0.67762370    -0.52700
O232        O  0.61769237  0.55166193  0.67213934    -0.97400
O233        O  0.57962691  0.56698612  0.63646580    -0.54600
O234        O  0.61453857  0.52741656  0.63582291    -0.74000
C235        C  0.62601971  0.51313664  0.62577092     0.98400
O236        O  0.66438235  0.55683854  0.58917624    -0.62800
O237        O  0.59883492  0.68398404  0.58071403    -0.57600
O238        O  0.63897732  0.58733260  0.57908995    -0.94300
O239        O  0.61362217  0.61743600  0.57522146    -0.92700
O240        O  0.64263981  0.71397396  0.58454788    -0.93000
O241        O  0.67446408  0.68432087  0.59209278    -0.91800
C242        C  0.62635482  0.59918448  0.56919066     1.17200
H243        H  0.61332097  0.71032692  0.61257060     0.33200
H244        H  0.67329022  0.63767599  0.62201090     0.44000
H245        H  0.60942481  0.57019047  0.60805229     0.37600
H246        H  0.62009043  0.62875894  0.67274073     0.34000
H247        H  0.67874610  0.73554303  0.61623993     0.25800
H248        H  0.66807936  0.59787753  0.68691519     0.31800
H249        H  0.61102065  0.53020873  0.67113499     0.37700
H250        H  0.64838013  0.73644923  0.58475979     0.32100
H251        H  0.58736725  0.67674844  0.57541034     0.31000
H252        H  0.57414475  0.61965606  0.58490112     0.32700
H253        H  0.57774250  0.54470350  0.64211568     0.31700
H254        H  0.67329409  0.66138806  0.58703914     0.35700
H255        H  0.67495195  0.57109957  0.58674460     0.28400
H256        H  0.59792216  0.73029816  0.67384352     0.32600
H257        H  0.58323957  0.56723152  0.67231182     0.35500
H258        H  0.59579691  0.70492081  0.58718071     0.28100
H259        H  0.66909999  0.53677812  0.59549901     0.40900
H260        H  0.68675641  0.66889655  0.65287527     0.31000
H261        H  0.67475602  0.72319580  0.63562110     0.38600
H262        H  0.58069118  0.56200947  0.62361321     0.30500
H263        H  0.64917156  0.58218488  0.68328442     0.30500
H264        H  0.59018269  0.69436658  0.67837454     0.30800
Zr265      Zr  0.39750865  0.18985552  0.85912392     2.17500
O266        O  0.41999449  0.21234669  0.83883935    -0.51600
O267        O  0.39070551  0.24881417  0.86519013    -0.74800
O268        O  0.38606476  0.19986169  0.82904890    -0.81500
O269        O  0.43442211  0.16808622  0.89237319    -0.83300
O270        O  0.35954021  0.17282039  0.82603769    -0.78900
O271        O  0.42878919  0.19738292  0.86692334    -0.90600
O272        O  0.36859908  0.25127620  0.88579542    -0.76500
O273        O  0.36633742  0.19268816  0.86494640    -0.86000
O274        O  0.39458206  0.19300627  0.89070704    -0.85700
O275        O  0.38557562  0.13873674  0.84657857    -0.72400
O276        O  0.41090794  0.13927144  0.87071447    -0.84600
Zr277      Zr  0.36335985  0.09371068  0.89619304     2.26400
Zr278      Zr  0.35429080  0.14150894  0.85315920     2.06300
Zr279      Zr  0.40711121  0.14171649  0.90216654     2.10000
Zr280      Zr  0.36342138  0.19480408  0.89648611     1.78800
O281        O  0.43111240  0.10192911  0.90837194    -0.93400
O282        O  0.33405115  0.21986900  0.89199105    -0.41200
O283        O  0.37592663  0.14423470  0.90847466    -0.77800
O284        O  0.35019915  0.14492957  0.88476765    -0.96500
O285        O  0.36693877  0.09052307  0.86472110    -0.89800
O286        O  0.39465567  0.09077571  0.89063336    -0.92700
C287        C  0.37938526  0.26490614  0.87475417     1.01100
C288        C  0.43919831  0.18699369  0.87937377     1.14000
C289        C  0.37221035  0.19130177  0.82003713     1.04800
O290        O  0.32829401  0.17739532  0.84853675    -0.94800
O291        O  0.32748811  0.11059065  0.86023963    -0.90600
O292        O  0.33179740  0.08789694  0.88774320    -0.83700
C293        C  0.32195882  0.09533116  0.87422200     1.11400
O294        O  0.42360285  0.09543703  0.83912945    -0.96800
Zr295      Zr  0.39820834  0.08868641  0.85912195     1.88900
O296        O  0.36952115  0.03477683  0.88884899    -0.73400
O297        O  0.34759572  0.10431427  0.82826298    -0.52700
O298        O  0.38975886  0.06804860  0.82976668    -0.97400
O299        O  0.42432033  0.05533397  0.86758585    -0.54600
O300        O  0.38742879  0.03251308  0.86450708    -0.74000
C301        C  0.37775329  0.01874955  0.87648222     0.98400
O302        O  0.34516592  0.06655533  0.91899786    -0.62800
O303        O  0.41620073  0.17858955  0.92646336    -0.57600
O304        O  0.37308248  0.08970053  0.92739065    -0.94300
O305        O  0.39992846  0.11564068  0.93027850    -0.92700
O306        O  0.37562415  0.22082549  0.92318226    -0.93000
O307        O  0.34260098  0.19044471  0.92123313    -0.91800
C308        C  0.38672173  0.09898791  0.93661426     1.17200
H309        H  0.40063802  0.21254873  0.89540867     0.33200
H310        H  0.33773819  0.14714091  0.88773823     0.44000
H311        H  0.39974660  0.07134554  0.89652070     0.37600
H312        H  0.38769023  0.13753546  0.83392360     0.34000
H313        H  0.33499478  0.24301587  0.89681267     0.25800
H314        H  0.33853707  0.11660885  0.82115408     0.31800
H315        H  0.39509729  0.04525150  0.82898831     0.37700
H316        H  0.37115353  0.24432022  0.92286474     0.32100
H317        H  0.42661506  0.16710901  0.93190289     0.31000
H318        H  0.43723675  0.09891223  0.89681542     0.32700
H319        H  0.42384935  0.03512305  0.85988299     0.31700
H320        H  0.34250363  0.16615208  0.92431315     0.35700
H321        H  0.33555096  0.08277680  0.92188230     0.28400
H322        H  0.41516325  0.23407807  0.83444586     0.32600
H323        H  0.42505335  0.07353224  0.83300173     0.35500
H324        H  0.42126192  0.19890818  0.92070202     0.28100
H325        H  0.33911736  0.04740760  0.91309122     0.40900
H326        H  0.33319678  0.20029187  0.84662407     0.31000
H327        H  0.33305934  0.22300461  0.87895443     0.38600
H328        H  0.42186065  0.04653361  0.87966329     0.30500
H329        H  0.35846995  0.10462839  0.82079562     0.30500
H330        H  0.42002463  0.19723543  0.82836397     0.30800
Zr331      Zr  0.39849685  0.68897259  0.85756049     2.17500
O332        O  0.42225586  0.71095542  0.83861934    -0.51600
O333        O  0.39215476  0.74854741  0.86334900    -0.74800
O334        O  0.38873841  0.69945185  0.82679795    -0.81500
O335        O  0.43381103  0.66229429  0.89221676    -0.83300
O336        O  0.36179378  0.67439383  0.82261328    -0.78900
O337        O  0.42968528  0.69264446  0.86681235    -0.90600
O338        O  0.37175882  0.75132243  0.88540593    -0.76500
O339        O  0.36734072  0.69462085  0.86286098    -0.86000
O340        O  0.39503020  0.69063558  0.88913996    -0.85700
O341        O  0.38545145  0.63946028  0.84429885    -0.72400
O342        O  0.41003728  0.63659674  0.86902967    -0.84600
Zr343      Zr  0.36066999  0.59431611  0.89235205     2.26400
Zr344      Zr  0.35406181  0.64535759  0.84997973     2.06300
Zr345      Zr  0.40553265  0.63765681  0.90052827     2.10000
Zr346      Zr  0.36395171  0.69521862  0.89440383     1.78800
O347        O  0.42864475  0.59617074  0.90699627    -0.93400
O348        O  0.33559764  0.72309353  0.88830536    -0.41200
O349        O  0.37429280  0.64265886  0.90595934    -0.77800
O350        O  0.34965781  0.64765671  0.88158013    -0.96500
O351        O  0.36489332  0.59228245  0.86095290    -0.89800
O352        O  0.39202005  0.58865248  0.88786476    -0.92700
C353        C  0.38192190  0.76516730  0.87386347     1.01100
C354        C  0.43945500  0.68123651  0.87956411     1.14000
C355        C  0.37519291  0.69162034  0.81710243     1.04800
O356        O  0.33023610  0.68507090  0.84296185    -0.94800
O357        O  0.32525703  0.62143435  0.85742056    -0.90600
O358        O  0.32912364  0.59336199  0.88360585    -0.83700
C359        C  0.31941093  0.60461771  0.87078603     1.11400
O360        O  0.41956754  0.59081497  0.83388172    -0.96800
Zr361      Zr  0.39631750  0.58775924  0.85650859     1.88900
O362        O  0.36576883  0.53501233  0.88511657    -0.73400
O363        O  0.34594260  0.60677607  0.82615659    -0.52700
O364        O  0.38590660  0.56346063  0.82858868    -0.97400
O365        O  0.42375186  0.55853079  0.86485229    -0.54600
O366        O  0.38723074  0.53149318  0.86407385    -0.74000
C367        C  0.37604378  0.51810307  0.87479311     0.98400
O368        O  0.34116844  0.56575728  0.91358167    -0.62800
O369        O  0.41373341  0.67361146  0.92552627    -0.57600
O370        O  0.36886702  0.58812475  0.92362898    -0.94300
O371        O  0.39648124  0.61025897  0.92799648    -0.92700
O372        O  0.37604906  0.71848268  0.92185689    -0.93000
O373        O  0.34264116  0.69366078  0.91882659    -0.91800
C374        C  0.38238278  0.59507775  0.93349720     1.17200
H375        H  0.40150196  0.70937277  0.89419146     0.33200
H376        H  0.33734943  0.65153119  0.88454486     0.44000
H377        H  0.39653572  0.56852829  0.89357288     0.37600
H378        H  0.38798974  0.63792742  0.83173890     0.34000
H379        H  0.33641335  0.74512154  0.89443225     0.25800
H380        H  0.33784147  0.61999632  0.81839344     0.31800
H381        H  0.38976989  0.53958394  0.82895159     0.37700
H382        H  0.37147998  0.74190417  0.92226335     0.32100
H383        H  0.42384581  0.66180677  0.93132342     0.31000
H384        H  0.43553270  0.60596938  0.91697673     0.32700
H385        H  0.42074191  0.54519170  0.87558412     0.31700
H386        H  0.34039148  0.66935027  0.92084252     0.35700
H387        H  0.33135741  0.58172383  0.91622370     0.28400
H388        H  0.41764948  0.73235078  0.83358021     0.32600
H389        H  0.42138825  0.56735993  0.82976338     0.35500
H390        H  0.41914370  0.69400931  0.92018002     0.28100
H391        H  0.33548478  0.54708838  0.90693593     0.40900
H392        H  0.33622603  0.70720391  0.84178027     0.31000
H393        H  0.33605486  0.72880023  0.87548064     0.38600
H394        H  0.43175591  0.57652388  0.86927282     0.30500
H395        H  0.35698289  0.60415223  0.81907086     0.30500
H396        H  0.42303173  0.69531834  0.82839146     0.30800
Zr397      Zr  0.39759600  0.23956159  0.64913115     2.17500
O398        O  0.42100128  0.22827245  0.67096982    -0.51600
O399        O  0.39217643  0.17935344  0.64410323    -0.74800
O400        O  0.38621759  0.22950904  0.67910837    -0.81500
O401        O  0.43371345  0.25847078  0.61474437    -0.83300
O402        O  0.35924553  0.25507145  0.68176306    -0.78900
O403        O  0.42859473  0.23041349  0.64053395    -0.90600
O404        O  0.36895229  0.17490725  0.62474689    -0.76500
O405        O  0.36646708  0.23399168  0.64339767    -0.86000
O406        O  0.39472737  0.23448416  0.61768850    -0.85700
O407        O  0.38416034  0.29030504  0.66054327    -0.72400
O408        O  0.40982008  0.29045781  0.63680202    -0.84600
Zr409      Zr  0.36119370  0.33092004  0.61054735     2.26400
Zr410      Zr  0.35295255  0.28465169  0.65418589     2.06300
Zr411      Zr  0.40619227  0.28575775  0.60532857     2.10000
Zr412      Zr  0.36365971  0.22974589  0.61194781     1.78800
O413        O  0.42886597  0.32858046  0.60008831    -0.93400
O414        O  0.33446035  0.20380002  0.61596560    -0.41200
O415        O  0.37500196  0.28058543  0.59927619    -0.77800
O416        O  0.34908167  0.27923356  0.62261643    -0.96500
O417        O  0.36446124  0.33613981  0.64197417    -0.89800
O418        O  0.39249045  0.33639583  0.61598816    -0.92700
C419        C  0.38053419  0.16225322  0.63533985     1.01100
C420        C  0.43885084  0.23973086  0.62775713     1.14000
C421        C  0.37227717  0.23767268  0.68804955     1.04800
O422        O  0.32841651  0.24558319  0.65928258    -0.94800
O423        O  0.32539593  0.31308749  0.64639492    -0.90600
O424        O  0.32937244  0.33368042  0.61840817    -0.83700
C425        C  0.31961322  0.32676822  0.63202349     1.11400
O426        O  0.41547325  0.33875109  0.67328844    -0.96800
Zr427      Zr  0.39569291  0.34064563  0.64747489     1.88900
O428        O  0.36713437  0.39101465  0.61580859    -0.73400
O429        O  0.34486469  0.32193207  0.67862032    -0.52700
O430        O  0.38290654  0.37037597  0.67279733    -0.97400
O431        O  0.42447713  0.36655952  0.64103663    -0.54600
O432        O  0.38874994  0.39634130  0.63676219    -0.74000
C433        C  0.37775222  0.40873168  0.62546605     0.98400
O434        O  0.34287917  0.35975678  0.58831197    -0.62800
O435        O  0.41773485  0.25023392  0.58153833    -0.57600
O436        O  0.36966058  0.33033685  0.57903574    -0.94300
O437        O  0.39703902  0.30616088  0.57616432    -0.92700
O438        O  0.37789274  0.20069880  0.58720491    -0.93000
O439        O  0.34457158  0.22990406  0.58569284    -0.91800
C440        C  0.38311850  0.32067340  0.56969603     1.17200
H441        H  0.40121204  0.21507539  0.61339406     0.33200
H442        H  0.33672611  0.27566565  0.61954171     0.44000
H443        H  0.39736052  0.35572649  0.60985177     0.37600
H444        H  0.38618290  0.29237112  0.67318875     0.34000
H445        H  0.33523321  0.18192877  0.60967484     0.25800
H446        H  0.33607152  0.30898939  0.68569681     0.31800
H447        H  0.38898803  0.39252952  0.67299010     0.37700
H448        H  0.37458185  0.17670739  0.58873771     0.32100
H449        H  0.43015612  0.25786683  0.57957436     0.31000
H450        H  0.43659260  0.31890701  0.59071780     0.32700
H451        H  0.42311092  0.37676581  0.62907504     0.31700
H452        H  0.34158915  0.25396984  0.58376448     0.35700
H453        H  0.33345301  0.34352245  0.58486790     0.28400
H454        H  0.41814525  0.20606801  0.67627729     0.32600
H455        H  0.41899913  0.36241463  0.67555585     0.35500
H456        H  0.41891111  0.22737946  0.58673520     0.28100
H457        H  0.33655160  0.37800141  0.59470350     0.40900
H458        H  0.32183558  0.24490050  0.64785224     0.31000
H459        H  0.33404703  0.19758967  0.62872792     0.38600
H460        H  0.43271278  0.34734170  0.63920292     0.30500
H461        H  0.35563559  0.32292210  0.68625271     0.30500
H462        H  0.41922510  0.24482552  0.68065618     0.30800
Zr463      Zr  0.40094096  0.73753788  0.64359476     2.17500
O464        O  0.42450625  0.71137085  0.66133558    -0.51600
O465        O  0.39366865  0.67842336  0.63707521    -0.74800
O466        O  0.39178357  0.72863125  0.67475698    -0.81500
O467        O  0.43675109  0.76377315  0.60936446    -0.83300
O468        O  0.36470540  0.75316310  0.67841390    -0.78900
O469        O  0.43223000  0.73402658  0.63482599    -0.90600
O470        O  0.37418833  0.67643083  0.61392512    -0.76500
O471        O  0.36964776  0.73388732  0.63853319    -0.86000
O472        O  0.39707854  0.73608133  0.61204207    -0.85700
O473        O  0.38916523  0.78817537  0.65686388    -0.72400
O474        O  0.41324008  0.78914567  0.63194713    -0.84600
Zr475      Zr  0.36443986  0.83458871  0.60888176     2.26400
Zr476      Zr  0.35766352  0.78419331  0.65149178     2.06300
Zr477      Zr  0.40846100  0.78815354  0.60049225     2.10000
Zr478      Zr  0.36583962  0.73347791  0.60697482     1.78800
O479        O  0.43271825  0.82576474  0.59212798    -0.93400
O480        O  0.33803621  0.70428134  0.61361065    -0.41200
O481        O  0.37710647  0.78525186  0.59531354    -0.77800
O482        O  0.35241732  0.78207206  0.61996878    -0.96500
O483        O  0.36928643  0.83628137  0.64021303    -0.89800
O484        O  0.39596818  0.83845028  0.61304001    -0.92700
C485        C  0.38406379  0.66240615  0.62567648     1.01100
C486        C  0.44223769  0.74510334  0.62221011     1.14000
C487        C  0.37812252  0.73635575  0.68430821     1.04800
O488        O  0.33303354  0.74580014  0.65737892    -0.94800
O489        O  0.32997175  0.81354981  0.64550776    -0.90600
O490        O  0.33309053  0.83781894  0.61823239    -0.83700
C491        C  0.32376058  0.82905567  0.63185399     1.11400
O492        O  0.42600851  0.83570036  0.66481951    -0.96800
Zr493      Zr  0.40075284  0.83924998  0.64437003     1.88900
O494        O  0.36908702  0.89351151  0.61747729    -0.73400
O495        O  0.35076606  0.82042597  0.67672286    -0.52700
O496        O  0.39379366  0.86280372  0.67349873    -0.97400
O497        O  0.42703865  0.86915666  0.63353807    -0.54600
O498        O  0.38945058  0.89553816  0.63979560    -0.74000
C499        C  0.37817090  0.90945589  0.62929677     0.98400
O500        O  0.34545580  0.86283778  0.58701641    -0.62800
O501        O  0.41469407  0.74942567  0.57610979    -0.57600
O502        O  0.37298283  0.84137895  0.57754616    -0.94300
O503        O  0.39978991  0.81616294  0.57306670    -0.92700
O504        O  0.37635726  0.70985919  0.57898977    -0.93000
O505        O  0.34381925  0.73965847  0.58331587    -0.91800
C506        C  0.38631509  0.83331310  0.56760503     1.17200
H507        H  0.40318311  0.71694593  0.60695684     0.33200
H508        H  0.33990319  0.77923530  0.61737308     0.44000
H509        H  0.40066830  0.85831727  0.60725723     0.37600
H510        H  0.39184390  0.78930224  0.66940364     0.34000
H511        H  0.33812776  0.68418427  0.60581465     0.25800
H512        H  0.34166920  0.80784679  0.68359651     0.31800
H513        H  0.39344655  0.84346492  0.68183294     0.37700
H514        H  0.37017766  0.68788913  0.57794829     0.32100
H515        H  0.42371613  0.76116748  0.56874949     0.31000
H516        H  0.43993056  0.81269851  0.58352472     0.32700
H517        H  0.42243873  0.88737916  0.62575443     0.31700
H518        H  0.34287924  0.76430614  0.58138049     0.35700
H519        H  0.33604086  0.84638994  0.58388058     0.28400
H520        H  0.41985254  0.68891032  0.66470809     0.32600
H521        H  0.42865652  0.85922850  0.66833668     0.35500
H522        H  0.42124411  0.73030646  0.58153654     0.28100
H523        H  0.33921083  0.88103969  0.59352622     0.40900
H524        H  0.32692275  0.74327972  0.64576537     0.31000
H525        H  0.33973180  0.69508456  0.62576195     0.38600
H526        H  0.43290599  0.85314149  0.62532582     0.30500
H527        H  0.36157789  0.81983801  0.68430811     0.30500
H528        H  0.42522483  0.72426083  0.67258496     0.30800
Zr529      Zr  0.90198690  0.99413625  0.64820367     2.17500
O530        O  0.92609288  0.97765305  0.66830474    -0.51600
O531        O  0.89524356  0.93432981  0.64475727    -0.74800
O532        O  0.89217459  0.98741746  0.67917021    -0.81500
O533        O  0.93691825  0.01167544  0.61165367    -0.83300
O534        O  0.86661815  0.01751479  0.68322547    -0.78900
O535        O  0.93250176  0.98436022  0.63788375    -0.90600
O536        O  0.87511774  0.92907086  0.62226952    -0.76500
O537        O  0.87052643  0.99030174  0.64397983    -0.86000
O538        O  0.89738076  0.98772372  0.61696722    -0.85700
O539        O  0.89032600  0.04644015  0.65952898    -0.72400
O540        O  0.91459824  0.04298662  0.63408644    -0.84600
Zr541      Zr  0.86569192  0.08615144  0.61023785     2.26400
Zr542      Zr  0.85867733  0.04258030  0.65475095     2.06300
Zr543      Zr  0.90891182  0.03732499  0.60289451     2.10000
Zr544      Zr  0.86607520  0.98472652  0.61273223     1.78800
O545        O  0.93231375  0.07529674  0.59270931    -0.93400
O546        O  0.83850409  0.95700540  0.62168662    -0.41200
O547        O  0.87741763  0.03430954  0.59855950    -0.77800
O548        O  0.85318381  0.03584351  0.62347185    -0.96500
O549        O  0.87098495  0.09223352  0.64131980    -0.89800
O550        O  0.89726812  0.08949857  0.61384175    -0.92700
C551        C  0.88553490  0.91682288  0.63415897     1.01100
C552        C  0.94231775  0.99315988  0.62460291     1.14000
C553        C  0.87940210  0.99875669  0.68890369     1.04800
O554        O  0.83505185  0.00338235  0.66288838    -0.94800
O555        O  0.83070484  0.07019501  0.64708997    -0.90600
O556        O  0.83443745  0.09209532  0.61935702    -0.83700
C557        C  0.82482029  0.08491792  0.63301515     1.11400
O558        O  0.92448053  0.08996769  0.66900756    -0.96800
Zr559      Zr  0.90258819  0.09458516  0.64501422     1.88900
O560        O  0.87262084  0.14557100  0.61558172    -0.73400
O561        O  0.85064750  0.08416693  0.67714340    -0.52700
O562        O  0.89353540  0.12734258  0.67091597    -0.97400
O563        O  0.93186872  0.11463527  0.63565844    -0.54600
O564        O  0.89577412  0.15054796  0.63480427    -0.74000
C565        C  0.88404655  0.16308545  0.62435444     0.98400
O566        O  0.84756911  0.11741284  0.58875830    -0.62800
O567        O  0.91528723  0.99505450  0.58030773    -0.57600
O568        O  0.87265230  0.08539950  0.57837207    -0.94300
O569        O  0.89932873  0.05933443  0.57420949    -0.92700
O570        O  0.87568426  0.95788215  0.58523355    -0.93000
O571        O  0.84275062  0.98542947  0.59012489    -0.91800
C572        C  0.88546895  0.07497106  0.56840190     1.17200
H573        H  0.90329145  0.96772233  0.61262292     0.33200
H574        H  0.84065140  0.03301891  0.62097077     0.44000
H575        H  0.90215940  0.10819833  0.60719563     0.37600
H576        H  0.89320087  0.04938681  0.67195017     0.34000
H577        H  0.83847243  0.93535610  0.61514434     0.25800
H578        H  0.84516591  0.07107461  0.68694632     0.31800
H579        H  0.89996116  0.14906132  0.66985696     0.37700
H580        H  0.87055383  0.93490069  0.58574348     0.32100
H581        H  0.92504743  0.00491443  0.57313084     0.31000
H582        H  0.93806854  0.06322563  0.58272225     0.32700
H583        H  0.93383165  0.13569868  0.64241616     0.31700
H584        H  0.84114127  0.00959643  0.58718831     0.35700
H585        H  0.83768092  0.10217619  0.58536249     0.28400
H586        H  0.92210844  0.95650202  0.67408672     0.32600
H587        H  0.92781187  0.11334041  0.67219542     0.35500
H588        H  0.92083903  0.97579962  0.58663277     0.28100
H589        H  0.84184262  0.13593913  0.59547897     0.40900
H590        H  0.82783937  0.00084500  0.65192153     0.31000
H591        H  0.84049713  0.95046137  0.63425785     0.38600
H592        H  0.93024747  0.12214501  0.62318964     0.30500
H593        H  0.86219253  0.09206784  0.68198258     0.30500
H594        H  0.92621066  0.99474331  0.67789420     0.30800
Zr595      Zr  0.89686052  0.48892015  0.64472404     2.17500
O596        O  0.91804573  0.45486576  0.66177058    -0.51600
O597        O  0.88985247  0.43176199  0.63486935    -0.74800
O598        O  0.88731030  0.47790450  0.67548954    -0.81500
O599        O  0.93272376  0.51267766  0.61040364    -0.83300
O600        O  0.86101297  0.50461008  0.68021459    -0.78900
O601        O  0.92860705  0.48784917  0.63722787    -0.90600
O602        O  0.86876667  0.43227081  0.61326704    -0.76500
O603        O  0.86545284  0.48803372  0.63975306    -0.86000
O604        O  0.89289084  0.49053201  0.61321402    -0.85700
O605        O  0.88571592  0.53863466  0.65943616    -0.72400
O606        O  0.91046392  0.54022037  0.63461111    -0.84600
Zr607      Zr  0.86254297  0.59148326  0.61272897     2.26400
Zr608      Zr  0.85420846  0.53788504  0.65394319     2.06300
Zr609      Zr  0.90550111  0.54268051  0.60327045     2.10000
Zr610      Zr  0.86157836  0.49059532  0.60823014     1.78800
O611        O  0.92887296  0.58463574  0.59937910    -0.93400
O612        O  0.83328636  0.46296306  0.61472675    -0.41200
O613        O  0.87407834  0.54238802  0.59799615    -0.77800
O614        O  0.84942266  0.53898973  0.62243959    -0.96500
O615        O  0.86719245  0.58977973  0.64410443    -0.89800
O616        O  0.89410327  0.59240809  0.61718181    -0.92700
C617        C  0.87963669  0.41691281  0.62358922     1.01100
C618        C  0.93850782  0.49641524  0.62397590     1.14000
C619        C  0.87390981  0.48569794  0.68538754     1.04800
O620        O  0.82889915  0.50068290  0.65903013    -0.94800
O621        O  0.82681550  0.56867858  0.64769913    -0.90600
O622        O  0.83101243  0.59561362  0.62124314    -0.83700
C623        C  0.82114625  0.58560603  0.63424010     1.11400
O624        O  0.91895477  0.57735564  0.67330221    -0.96800
Zr625      Zr  0.89873395  0.58943670  0.64857482     1.88900
O626        O  0.87137143  0.64898282  0.62098496    -0.73400
O627        O  0.84801256  0.57329539  0.67965064    -0.52700
O628        O  0.88918153  0.61715527  0.67587403    -0.97400
O629        O  0.92888078  0.60910198  0.64223964    -0.54600
O630        O  0.89349585  0.64780232  0.64162118    -0.74000
C631        C  0.88274656  0.66348445  0.63128359     0.98400
O632        O  0.84208607  0.62794615  0.59619897    -0.62800
O633        O  0.91460957  0.51144316  0.57686994    -0.57600
O634        O  0.86975385  0.59513888  0.58087286    -0.94300
O635        O  0.89629974  0.56944885  0.57587169    -0.92700
O636        O  0.87142530  0.47124913  0.57909910    -0.93000
O637        O  0.83879820  0.50009775  0.58558368    -0.91800
C638        C  0.88271799  0.58640468  0.57062197     1.17200
H639        H  0.89866967  0.47169835  0.60747796     0.33200
H640        H  0.83693029  0.53701454  0.61961382     0.44000
H641        H  0.89943204  0.61224024  0.61193859     0.37600
H642        H  0.88836259  0.53876330  0.67200455     0.34000
H643        H  0.83253783  0.44415700  0.60611004     0.25800
H644        H  0.83929216  0.56028855  0.68678189     0.31800
H645        H  0.89647277  0.63791482  0.67665550     0.37700
H646        H  0.86230899  0.45470917  0.57529283     0.32100
H647        H  0.92703732  0.51864602  0.57454608     0.31000
H648        H  0.93349569  0.58068910  0.58723618     0.32700
H649        H  0.93074691  0.62847989  0.65030385     0.31700
H650        H  0.84142345  0.52285447  0.58081274     0.35700
H651        H  0.84963600  0.64544910  0.59057313     0.28400
H652        H  0.91125001  0.43518993  0.66623284     0.32600
H653        H  0.92310531  0.59944854  0.67779507     0.35500
H654        H  0.91565137  0.48766373  0.58076874     0.28100
H655        H  0.83752257  0.61419699  0.58618936     0.40900
H656        H  0.82287230  0.49910853  0.64732521     0.31000
H657        H  0.83516807  0.45177604  0.62637513     0.38600
H658        H  0.92813341  0.61929483  0.63023166     0.30500
H659        H  0.85913535  0.57275265  0.68678067     0.30500
H660        H  0.92101957  0.46822133  0.67249631     0.30800
Zr661      Zr  0.89794543  0.43462070  0.85745682     2.17500
O662        O  0.92140161  0.45260788  0.83702734    -0.51600
O663        O  0.89084960  0.49453152  0.86077887    -0.74800
O664        O  0.88814792  0.43829911  0.82624712    -0.81500
O665        O  0.93267091  0.42180780  0.89457900    -0.83300
O666        O  0.86321836  0.40665519  0.82244888    -0.78900
O667        O  0.92832442  0.44541825  0.86738240    -0.90600
O668        O  0.86898212  0.49939528  0.88139644    -0.76500
O669        O  0.86634972  0.43504995  0.86053622    -0.86000
O670        O  0.89243663  0.44315883  0.88845083    -0.85700
O671        O  0.88841559  0.38018765  0.84700037    -0.72400
O672        O  0.91155862  0.38819578  0.87302436    -0.84600
Zr673      Zr  0.86327349  0.34290694  0.89667198     2.26400
Zr674      Zr  0.85664430  0.38033270  0.85086928     2.06300
Zr675      Zr  0.90503276  0.39581769  0.90387858     2.10000
Zr676      Zr  0.86092165  0.44364603  0.89141544     1.78800
O677        O  0.92988677  0.36198522  0.91483972    -0.93400
O678        O  0.83353976  0.46753587  0.87915293    -0.41200
O679        O  0.87332593  0.39677148  0.90744122    -0.77800
O680        O  0.84991508  0.39051680  0.88164241    -0.96500
O681        O  0.86975301  0.33352122  0.86610124    -0.89800
O682        O  0.89494983  0.34188634  0.89401321    -0.92700
C683        C  0.88012820  0.51207797  0.87036638     1.01100
C684        C  0.93809191  0.43846250  0.88098930     1.14000
C685        C  0.87556814  0.42602164  0.81651838     1.04800
O686        O  0.83068445  0.40720796  0.83743427    -0.94800
O687        O  0.82901151  0.35204969  0.85870614    -0.90600
O688        O  0.83254132  0.33301329  0.88706829    -0.83700
C689        C  0.82314771  0.33827533  0.87301280     1.11400
O690        O  0.92547021  0.33767095  0.84148102    -0.96800
Zr691      Zr  0.90143374  0.33441807  0.86326468     1.88900
O692        O  0.87027027  0.28348041  0.89164127    -0.73400
O693        O  0.85550314  0.33107229  0.83167312    -0.52700
O694        O  0.89502382  0.30107652  0.83681169    -0.97400
O695        O  0.92960131  0.31361451  0.87537616    -0.54600
O696        O  0.89444053  0.27871679  0.87360860    -0.74000
C697        C  0.88209110  0.26624081  0.88327397     0.98400
O698        O  0.84456371  0.31716300  0.91954434    -0.62800
O699        O  0.90998437  0.44011093  0.92574308    -0.57600
O700        O  0.87111502  0.34253164  0.92819639    -0.94300
O701        O  0.89724921  0.37049912  0.93227226    -0.92700
O702        O  0.86729369  0.47484160  0.91857405    -0.93000
O703        O  0.83629697  0.44275154  0.91253373    -0.91800
C704        C  0.88396785  0.35320581  0.93800670     1.17200
H705        H  0.89774487  0.46386723  0.89264837     0.33200
H706        H  0.83725790  0.39246928  0.88361909     0.44000
H707        H  0.90003610  0.32412645  0.90124197     0.37600
H708        H  0.89160491  0.37686195  0.83468905     0.34000
H709        H  0.83227336  0.48971533  0.88505061     0.25800
H710        H  0.84534349  0.33545204  0.82355184     0.31800
H711        H  0.90072201  0.27890249  0.83897779     0.37700
H712        H  0.86067163  0.49632855  0.91724574     0.32100
H713        H  0.89863344  0.44150970  0.93243100     0.31000
H714        H  0.93496109  0.37519204  0.92479937     0.32700
H715        H  0.92635102  0.30011355  0.88598285     0.31700
H716        H  0.83711695  0.42030464  0.91827610     0.35700
H717        H  0.83407952  0.33214240  0.92089146     0.28400
H718        H  0.91663300  0.47254770  0.83063478     0.32600
H719        H  0.92997204  0.31432732  0.84014444     0.35500
H720        H  0.91858046  0.43027960  0.93432951     0.28100
H721        H  0.83981975  0.29613831  0.91426121     0.40900
H722        H  0.82570022  0.42147738  0.84701571     0.31000
H723        H  0.83646060  0.47314044  0.86664437     0.38600
H724        H  0.93555734  0.33386581  0.88025517     0.30500
H725        H  0.86623488  0.33293258  0.82408708     0.30500
H726        H  0.92231908  0.43465187  0.82793345     0.30800
Zr727      Zr  0.89829806  0.93871972  0.86045141     2.17500
O728        O  0.92095952  0.96487487  0.84161120    -0.51600
O729        O  0.89279689  0.99719893  0.86915698    -0.74800
O730        O  0.88822194  0.95094051  0.83002499    -0.81500
O731        O  0.93419145  0.90983004  0.89403154    -0.83300
O732        O  0.86176616  0.92511243  0.82484323    -0.78900
O733        O  0.92984245  0.94045091  0.86894877    -0.90600
O734        O  0.87081693  0.99884949  0.88976766    -0.76500
O735        O  0.86686587  0.94232745  0.86488830    -0.86000
O736        O  0.89393816  0.93879814  0.89189171    -0.85700
O737        O  0.88617193  0.88939343  0.84617732    -0.72400
O738        O  0.91056689  0.88648407  0.87107687    -0.84600
Zr739      Zr  0.86180224  0.84048965  0.89338338     2.26400
Zr740      Zr  0.85463411  0.89276051  0.85131653     2.06300
Zr741      Zr  0.90563823  0.88613666  0.90247878     2.10000
Zr742      Zr  0.86251231  0.94150499  0.89628039     1.78800
O743        O  0.92839050  0.84440026  0.90972528    -0.93400
O744        O  0.83486764  0.97063933  0.88862562    -0.41200
O745        O  0.87420441  0.88949125  0.90736863    -0.77800
O746        O  0.84924998  0.89306179  0.88281880    -0.96500
O747        O  0.86633919  0.84030846  0.86204484    -0.89800
O748        O  0.89323876  0.83675441  0.88903247    -0.92700
C749        C  0.88221098  0.01317523  0.87960406     1.01100
C750        C  0.93993010  0.92858532  0.88137754     1.14000
C751        C  0.87487887  0.94366237  0.81993655     1.04800
O752        O  0.82997260  0.93167004  0.84620658    -0.94800
O753        O  0.82731893  0.86159648  0.85655273    -0.90600
O754        O  0.83087821  0.83568770  0.88337329    -0.83700
C755        C  0.82147877  0.84447835  0.86981343     1.11400
O756        O  0.92001959  0.84389953  0.83425398    -0.96800
Zr757      Zr  0.89772410  0.83761003  0.85763877     1.88900
O758        O  0.86886588  0.78170708  0.88612202    -0.73400
O759        O  0.84820368  0.85744917  0.82562354    -0.52700
O760        O  0.88761225  0.81442622  0.82935521    -0.97400
O761        O  0.92561101  0.81010394  0.86606852    -0.54600
O762        O  0.88881154  0.78031036  0.86339712    -0.74000
C763        C  0.87842631  0.76605040  0.87459371     0.98400
O764        O  0.84301792  0.80859020  0.91392869    -0.62800
O765        O  0.91429879  0.92283893  0.92701968    -0.57600
O766        O  0.86849662  0.83818816  0.92522281    -0.94300
O767        O  0.89636832  0.85902768  0.92990988    -0.92700
O768        O  0.87201868  0.96318799  0.92508326    -0.93000
O769        O  0.83949771  0.93647775  0.91900959    -0.91800
C770        C  0.88190743  0.84502497  0.93527946     1.17200
H771        H  0.89997761  0.95753770  0.89744095     0.33200
H772        H  0.83668305  0.89516530  0.88534712     0.44000
H773        H  0.89810605  0.81665099  0.89447673     0.37600
H774        H  0.88885730  0.88901824  0.83362439     0.34000
H775        H  0.83465842  0.99079599  0.89638011     0.25800
H776        H  0.83963753  0.87071989  0.81839933     0.31800
H777        H  0.89339118  0.79202643  0.82849059     0.37700
H778        H  0.86870599  0.98736310  0.92491244     0.32100
H779        H  0.92379917  0.91027308  0.93337596     0.31000
H780        H  0.93243601  0.85032526  0.92187082     0.32700
H781        H  0.92230582  0.79330809  0.87525428     0.31700
H782        H  0.83452685  0.91356291  0.91740110     0.35700
H783        H  0.83290756  0.82363321  0.91693291     0.28400
H784        H  0.91559383  0.98582083  0.83680203     0.32600
H785        H  0.92395897  0.82072025  0.83134210     0.35500
H786        H  0.92056156  0.94215886  0.92148541     0.28100
H787        H  0.83769027  0.79010736  0.90685061     0.40900
H788        H  0.82257710  0.93009566  0.85708640     0.31000
H789        H  0.83691710  0.97977108  0.87652402     0.38600
H790        H  0.93234104  0.82757276  0.87264985     0.30500
H791        H  0.85935292  0.85746191  0.81856929     0.30500
H792        H  0.92238845  0.94979032  0.83121906     0.30800
Zr793      Zr  0.11289310  0.98343748  0.85830675     2.17500
O794        O  0.08941594  0.95838335  0.84013393    -0.51600
O795        O  0.12072008  0.92507098  0.86591988    -0.74800
O796        O  0.12308961  0.97333087  0.82768869    -0.81500
O797        O  0.07593308  0.00764578  0.89151217    -0.83300
O798        O  0.14945283  0.00040129  0.82383889    -0.78900
O799        O  0.08167802  0.97624064  0.86689339    -0.90600
O800        O  0.14074012  0.92507940  0.88864150    -0.76500
O801        O  0.14422687  0.98223040  0.86360890    -0.86000
O802        O  0.11644053  0.98322666  0.88985177    -0.85700
O803        O  0.12414156  0.03424492  0.84466879    -0.72400
O804        O  0.09929472  0.03433502  0.86908171    -0.84600
Zr805      Zr  0.14681938  0.08394270  0.89260429     2.26400
Zr806      Zr  0.15563703  0.03307858  0.85051574     2.06300
Zr807      Zr  0.10356151  0.03463851  0.90055919     2.10000
Zr808      Zr  0.14770336  0.98287334  0.89514678     1.78800
O809        O  0.07997957  0.07515632  0.90691210    -0.93400
O810        O  0.17646656  0.95763932  0.88797761    -0.41200
O811        O  0.13492768  0.03384848  0.90610472    -0.77800
O812        O  0.16027322  0.03223153  0.88213586    -0.96500
O813        O  0.14261733  0.08441921  0.86117029    -0.89800
O814        O  0.11531605  0.08527018  0.88771677    -0.92700
C815        C  0.13073357  0.91005726  0.87739485     1.01100
C816        C  0.07116969  0.98749246  0.87902308     1.14000
C817        C  0.13662626  0.98177255  0.81814131     1.04800
O818        O  0.18143810  0.99666816  0.84602981    -0.94800
O819        O  0.18242948  0.06553685  0.85685890    -0.90600
O820        O  0.17840404  0.08832453  0.88433506    -0.83700
C821        C  0.18809769  0.08090331  0.87077693     1.11400
O822        O  0.08913758  0.07716047  0.83270585    -0.96800
Zr823      Zr  0.11120460  0.08459386  0.85625988     1.88900
O824        O  0.13970492  0.14215331  0.88401210    -0.73400
O825        O  0.16180151  0.06953852  0.82511838    -0.52700
O826        O  0.12128809  0.10972593  0.82841500    -0.97400
O827        O  0.08233363  0.10910651  0.86383045    -0.54600
O828        O  0.11803178  0.14233174  0.86294285    -0.74000
C829        C  0.12897270  0.15736283  0.87329612     0.98400
O830        O  0.16440289  0.11807898  0.91316726    -0.62800
O831        O  0.09501392  0.99804662  0.92524403    -0.57600
O832        O  0.13887042  0.08700358  0.92429631    -0.94300
O833        O  0.11244799  0.06003550  0.92851628    -0.92700
O834        O  0.13768996  0.95958088  0.92343707    -0.93000
O835        O  0.16937223  0.98969430  0.91904354    -0.91800
C836        C  0.12588495  0.07699892  0.93420606     1.17200
H837        H  0.11069975  0.96384981  0.89512726     0.33200
H838        H  0.17276609  0.03013651  0.88502374     0.44000
H839        H  0.10999084  0.10491434  0.89313095     0.37600
H840        H  0.12169874  0.03493554  0.83205618     0.34000
H841        H  0.17725097  0.93735125  0.89564797     0.25800
H842        H  0.17169634  0.05825509  0.81874478     0.31800
H843        H  0.11498825  0.13163726  0.82759486     0.37700
H844        H  0.14319476  0.93690353  0.92411672     0.32100
H845        H  0.08391506  0.00817136  0.92997931     0.31000
H846        H  0.07112532  0.06242082  0.91401142     0.32700
H847        H  0.08475564  0.12477393  0.87378120     0.31700
H848        H  0.17062304  0.01441153  0.92040176     0.35700
H849        H  0.17441424  0.10357053  0.91715278     0.28400
H850        H  0.09345966  0.93507921  0.83773643     0.32600
H851        H  0.08536838  0.10019026  0.82921890     0.35500
H852        H  0.09110346  0.97663590  0.91973978     0.28100
H853        H  0.17000600  0.13600748  0.90588753     0.40900
H854        H  0.18854042  0.99874438  0.85709831     0.31000
H855        H  0.17497136  0.94859961  0.87579590     0.38600
H856        H  0.07555771  0.09037046  0.86932693     0.30500
H857        H  0.15134640  0.06699100  0.81716256     0.30500
H858        H  0.08966515  0.97012095  0.82849279     0.30800
Zr859      Zr  0.11005058  0.48954983  0.85792849     2.17500
O860        O  0.08706375  0.47114227  0.83702331    -0.51600
O861        O  0.11536307  0.42924273  0.86242612    -0.74800
O862        O  0.12067796  0.48282331  0.82734699    -0.81500
O863        O  0.07411506  0.50988938  0.89282959    -0.83300
O864        O  0.14699730  0.51011870  0.82414939    -0.78900
O865        O  0.07878122  0.48476968  0.86606098    -0.90600
O866        O  0.13597000  0.42293340  0.88434773    -0.76500
O867        O  0.14136173  0.48490453  0.86254759    -0.86000
O868        O  0.11398036  0.48199273  0.88921522    -0.85700
O869        O  0.12194076  0.54198694  0.84697679    -0.72400
O870        O  0.09766170  0.53851944  0.87204961    -0.84600
Zr871      Zr  0.14619658  0.57881349  0.89736020     2.26400
Zr872      Zr  0.15341231  0.53739735  0.85229498     2.06300
Zr873      Zr  0.10238315  0.53150760  0.90331534     2.10000
Zr874      Zr  0.14527246  0.47809792  0.89383135     1.78800
O875        O  0.07932158  0.57042281  0.91330470    -0.93400
O876        O  0.17248543  0.44958597  0.88446328    -0.41200
O877        O  0.13374837  0.52704570  0.90825983    -0.77800
O878        O  0.15859455  0.52922836  0.88357669    -0.96500
O879        O  0.14158066  0.58680352  0.86623401    -0.89800
O880        O  0.11476194  0.58364860  0.89312960    -0.92700
C881        C  0.12515604  0.41113155  0.87275770     1.01100
C882        C  0.06874853  0.49376005  0.87904440     1.14000
C883        C  0.13422221  0.49203509  0.81804646     1.04800
O884        O  0.17874344  0.50209308  0.84432881    -0.94800
O885        O  0.18071980  0.56632889  0.86008122    -0.90600
O886        O  0.17691762  0.58821409  0.88774784    -0.83700
C887        C  0.18638103  0.58195014  0.87389631     1.11400
O888        O  0.08627289  0.59041129  0.83983441    -0.96800
Zr889      Zr  0.11016587  0.59033344  0.86193609     1.88900
O890        O  0.14126163  0.63899511  0.89257465    -0.73400
O891        O  0.15938519  0.57878609  0.82905874    -0.52700
O892        O  0.11894842  0.61934587  0.83468870    -0.97400
O893        O  0.08256768  0.61601737  0.87253746    -0.54600
O894        O  0.11964494  0.64528447  0.87159816    -0.74000
C895        C  0.13103994  0.65704236  0.88265148     0.98400
O896        O  0.16621676  0.59491743  0.92154673    -0.62800
O897        O  0.09384325  0.48844801  0.92490086    -0.57600
O898        O  0.13684756  0.58291244  0.92847180    -0.94300
O899        O  0.11136827  0.55274209  0.93230812    -0.92700
O900        O  0.13553015  0.45040163  0.92111068    -0.93000
O901        O  0.16840816  0.47807833  0.91662125    -0.91800
C902        C  0.12426640  0.57086519  0.93823506     1.17200
H903        H  0.10785155  0.46207438  0.89338307     0.33200
H904        H  0.17116964  0.52690293  0.88609119     0.44000
H905        H  0.10998230  0.60237979  0.89980206     0.37600
H906        H  0.11940048  0.54499191  0.83447476     0.34000
H907        H  0.17255423  0.42805240  0.89116445     0.25800
H908        H  0.16841615  0.56794880  0.82134112     0.31800
H909        H  0.11444099  0.64267970  0.83603494     0.37700
H910        H  0.13934473  0.42661809  0.91983756     0.32100
H911        H  0.08422652  0.49902022  0.93198996     0.31000
H912        H  0.07226422  0.55740324  0.92207260     0.32700
H913        H  0.08616528  0.63121551  0.88233840     0.31700
H914        H  0.16722095  0.50029375  0.92249511     0.35700
H915        H  0.17590154  0.57789892  0.92159084     0.28400
H916        H  0.09170429  0.45039533  0.83135201     0.32600
H917        H  0.08341147  0.61443910  0.83759647     0.35500
H918        H  0.08772247  0.47065536  0.91798773     0.28100
H919        H  0.17194606  0.61624972  0.91776188     0.40900
H920        H  0.18411658  0.49541966  0.85585624     0.31000
H921        H  0.17019473  0.44287918  0.87198140     0.38600
H922        H  0.07607696  0.59742682  0.87849313     0.30500
H923        H  0.14838978  0.57932719  0.82173949     0.30500
H924        H  0.08674242  0.48831881  0.82743510     0.30800
Zr925      Zr  0.10937428  0.42945056  0.64814965     2.17500
O926        O  0.08631085  0.44478012  0.66958985    -0.51600
O927        O  0.11472945  0.48949814  0.64297484    -0.74800
O928        O  0.12088630  0.43837169  0.67827317    -0.81500
O929        O  0.07336175  0.41306608  0.61281817    -0.83300
O930        O  0.14679407  0.40937028  0.68171057    -0.78900
O931        O  0.07851071  0.43897878  0.63932848    -0.90600
O932        O  0.13427291  0.49413227  0.62001758    -0.76500
O933        O  0.14065724  0.43299892  0.64293480    -0.86000
O934        O  0.11269236  0.43531352  0.61674121    -0.85700
O935        O  0.12134393  0.37729838  0.65956435    -0.72400
O936        O  0.09628480  0.38014264  0.63496775    -0.84600
Zr937      Zr  0.14431334  0.33772000  0.60925866     2.26400
Zr938      Zr  0.15273556  0.38066751  0.65369425     2.06300
Zr939      Zr  0.10055468  0.38550269  0.60357147     2.10000
Zr940      Zr  0.14382731  0.43852565  0.61149947     1.78800
O941        O  0.07620209  0.34667567  0.59728857    -0.93400
O942        O  0.17111350  0.46755935  0.62020201    -0.41200
O943        O  0.13185913  0.38917189  0.59767948    -0.77800
O944        O  0.15687023  0.38783960  0.62229064    -0.96500
O945        O  0.14033671  0.33104593  0.64055950    -0.89800
O946        O  0.11295101  0.33367590  0.61417897    -0.92700
C947        C  0.12382637  0.50674597  0.63169073     1.01100
C948        C  0.06843234  0.43077979  0.62618969     1.14000
C949        C  0.13427148  0.42840592  0.68765578     1.04800
O950        O  0.17862761  0.41319257  0.66300755    -0.94800
O951        O  0.18043153  0.35370511  0.64463550    -0.90600
O952        O  0.17569887  0.33035654  0.61736659    -0.83700
C953        C  0.18576438  0.33830021  0.63059042     1.11400
O954        O  0.08606342  0.33204504  0.66850706    -0.96800
Zr955      Zr  0.10895594  0.32856848  0.64551453     1.88900
O956        O  0.13838562  0.27789035  0.61430414    -0.73400
O957        O  0.15793570  0.33537006  0.67496532    -0.52700
O958        O  0.11777833  0.29905873  0.67263079    -0.97400
O959        O  0.08098711  0.30244953  0.63624933    -0.54600
O960        O  0.11761048  0.27295037  0.63608017    -0.74000
C961        C  0.12834657  0.26038770  0.62463463     0.98400
O962        O  0.16728000  0.31822846  0.58869214    -0.62800
O963        O  0.09212750  0.42411618  0.57967343    -0.57600
O964        O  0.13371696  0.33255218  0.57847487    -0.94300
O965        O  0.10781056  0.36111335  0.57498208    -0.92700
O966        O  0.13438233  0.46454378  0.58365973    -0.93000
O967        O  0.16731154  0.43607334  0.58915972    -0.91800
C968        C  0.12053925  0.34293540  0.56889456     1.17200
H969        H  0.10652950  0.45509481  0.61240561     0.33200
H970        H  0.16931860  0.39050485  0.61939894     0.44000
H971        H  0.10790380  0.31478993  0.60783225     0.37600
H972        H  0.11903825  0.37499711  0.67215042     0.34000
H973        H  0.17103163  0.48878180  0.61322990     0.25800
H974        H  0.16798047  0.34338991  0.68240161     0.31800
H975        H  0.11236681  0.27637083  0.67162787     0.37700
H976        H  0.14187185  0.48499841  0.58255147     0.32100
H977        H  0.07974916  0.41773031  0.57652743     0.31000
H978        H  0.06917591  0.35787579  0.58779519     0.32700
H979        H  0.08404658  0.28820350  0.62589024     0.31700
H980        H  0.16575355  0.41380473  0.58343102     0.35700
H981        H  0.16245377  0.29755360  0.58311124     0.28400
H982        H  0.09027353  0.46620724  0.67505729     0.32600
H983        H  0.08219481  0.30855582  0.67077388     0.35500
H984        H  0.09094732  0.44653613  0.58530632     0.28100
H985        H  0.16774546  0.33519460  0.57901008     0.40900
H986        H  0.18226700  0.42572649  0.65219635     0.31000
H987        H  0.16899150  0.47481500  0.63262068     0.38600
H988        H  0.07384059  0.32117480  0.63119278     0.30500
H989        H  0.14741532  0.33581630  0.68290267     0.30500
H990        H  0.08706044  0.42775730  0.67923055     0.30800
Zr991      Zr  0.11316102  0.93140255  0.64538833     2.17500
O992        O  0.08892032  0.95313895  0.66371696    -0.51600
O993        O  0.11969820  0.99054529  0.63896649    -0.74800
O994        O  0.12299524  0.94102521  0.67617197    -0.81500
O995        O  0.07709910  0.90761130  0.61102443    -0.83300
O996        O  0.14950647  0.91447274  0.68004439    -0.78900
O997        O  0.08236840  0.93848750  0.63595716    -0.90600
O998        O  0.13909394  0.99308823  0.61582870    -0.76500
O999        O  0.14450796  0.93428826  0.64062773    -0.86000
O1000       O  0.11706285  0.93413793  0.61392696    -0.85700
O1001       O  0.12447766  0.88029067  0.65851833    -0.72400
O1002       O  0.10037933  0.88079622  0.63333722    -0.84600
Zr1003     Zr  0.14880784  0.83466986  0.61008595     2.26400
Zr1004     Zr  0.15593644  0.88286448  0.65320739     2.06300
Zr1005     Zr  0.10527768  0.88300424  0.60196533     2.10000
Zr1006     Zr  0.14828842  0.93623485  0.60911003     1.78800
O1007       O  0.08082216  0.84753639  0.59173816    -0.93400
O1008       O  0.17596791  0.96426089  0.61743631    -0.41200
O1009       O  0.13674977  0.88508527  0.59676176    -0.77800
O1010       O  0.16099209  0.88651501  0.62173238    -0.96500
O1011       O  0.14395333  0.83169888  0.64139196    -0.89800
O1012       O  0.11723065  0.83197099  0.61427105    -0.92700
C1013       C  0.12896560  0.00683001  0.62743131     1.01100
C1014       C  0.07215460  0.92751711  0.62353315     1.14000
C1015       C  0.13650545  0.93254369  0.68578509     1.04800
O1016       O  0.18178833  0.91527505  0.66273465    -0.94800
O1017       O  0.18371946  0.85459075  0.64628108    -0.90600
O1018       O  0.18021620  0.83027054  0.61907427    -0.83700
C1019       C  0.18967206  0.83875762  0.63266578     1.11400
O1020       O  0.09013387  0.83445685  0.66913238    -0.96800
Zr1021     Zr  0.11244501  0.83022398  0.64561316     1.88900
O1022       O  0.14178590  0.77536237  0.61663571    -0.73400
O1023       O  0.15936871  0.84095995  0.67671414    -0.52700
O1024       O  0.12241388  0.80251302  0.67287007    -0.97400
O1025       O  0.08318957  0.80826633  0.63742674    -0.54600
O1026       O  0.11918075  0.77343703  0.63673935    -0.74000
C1027       C  0.13038415  0.75940776  0.62628313     0.98400
O1028       O  0.17167128  0.80698779  0.59219488    -0.62800
O1029       O  0.10013209  0.92475067  0.57860713    -0.57600
O1030       O  0.14039102  0.83043167  0.57851698    -0.94300
O1031       O  0.11343840  0.85561351  0.57450752    -0.92700
O1032       O  0.13870599  0.95990974  0.58070382    -0.93000
O1033       O  0.17150339  0.93340243  0.58650478    -0.91800
C1034       C  0.12704988  0.83936356  0.56876583     1.17200
H1035       H  0.11103641  0.95352102  0.60893768     0.33200
H1036       H  0.17351584  0.88911437  0.61914329     0.44000
H1037       H  0.11215522  0.81267832  0.60829724     0.37600
H1038       H  0.12185794  0.87898181  0.67107936     0.34000
H1039       H  0.17606138  0.98536536  0.61036658     0.25800
H1040       H  0.17092718  0.84650250  0.68239615     0.31800
H1041       H  0.11732713  0.77950395  0.67233165     0.37700
H1042       H  0.14460529  0.98220873  0.58000882     0.32100
H1043       H  0.09402771  0.91226114  0.56896955     0.31000
H1044       H  0.07488529  0.86091636  0.58228387     0.32700
H1045       H  0.08310122  0.78473009  0.64184301     0.31700
H1046       H  0.17321670  0.90898094  0.58438200     0.35700
H1047       H  0.16589123  0.78666987  0.58719124     0.28400
H1048       H  0.09219166  0.97677835  0.66634237     0.32600
H1049       H  0.08730272  0.81099697  0.67267223     0.35500
H1050       H  0.09086169  0.94006948  0.58335632     0.28100
H1051       H  0.17385769  0.82197883  0.58187106     0.40900
H1052       H  0.18532221  0.92833396  0.65206677     0.31000
H1053       H  0.17400510  0.97182988  0.62982603     0.38600
H1054       H  0.08344187  0.80621825  0.62430616     0.30500
H1055       H  0.15030293  0.84700478  0.68573505     0.30500
H1056       H  0.08956479  0.94108680  0.67525458     0.30800
Zr1057     Zr  0.36183144  0.09825605  0.11003361     2.17500
O1058       O  0.34074565  0.06756171  0.09130224    -0.51600
O1059       O  0.36726767  0.03948717  0.11798337    -0.74800
O1060       O  0.37164489  0.09000414  0.07917586    -0.81500
O1061       O  0.32609105  0.12300786  0.14389195    -0.83300
O1062       O  0.39915496  0.11278942  0.07530678    -0.78900
O1063       O  0.33005264  0.09755328  0.11715102    -0.90600
O1064       O  0.39082158  0.03623943  0.13690681    -0.76500
O1065       O  0.39321715  0.09441852  0.11470059    -0.86000
O1066       O  0.36603017  0.09574515  0.14154050    -0.85700
O1067       O  0.37364268  0.14877614  0.09666699    -0.72400
O1068       O  0.34929192  0.14931289  0.12184748    -0.84600
Zr1069     Zr  0.39814395  0.19373230  0.14503972     2.26400
Zr1070     Zr  0.40515474  0.14509625  0.10196451     2.06300
Zr1071     Zr  0.35426787  0.14722885  0.15326626     2.10000
Zr1072     Zr  0.39737826  0.09291610  0.14617168     1.78800
O1073       O  0.33107659  0.18729610  0.16150357    -0.93400
O1074       O  0.42680726  0.06911536  0.14054442    -0.41200
O1075       O  0.38566518  0.14387618  0.15827664    -0.77800
O1076       O  0.41046727  0.14204031  0.13343356    -0.96500
O1077       O  0.39341768  0.19665618  0.11371481    -0.89800
O1078       O  0.36664721  0.19761757  0.14081132    -0.92700
C1079       C  0.37876995  0.02288973  0.12714974     1.01100
C1080       C  0.32021658  0.10712839  0.13019669     1.14000
C1081       C  0.38552907  0.09640541  0.06971935     1.04800
O1082       O  0.43080983  0.11040692  0.09419586    -0.94800
O1083       O  0.43288691  0.17367046  0.10835341    -0.90600
O1084       O  0.42927141  0.19877321  0.13533241    -0.83700
C1085       C  0.43868757  0.19023611  0.12177541     1.11400
O1086       O  0.33704801  0.19560685  0.08856960    -0.96800
Zr1087     Zr  0.36193051  0.19932595  0.10945399     1.88900
O1088       O  0.39120731  0.25291833  0.13860648    -0.73400
O1089       O  0.40911567  0.18513871  0.07766929    -0.52700
O1090       O  0.36989750  0.22196501  0.08035717    -0.97400
O1091       O  0.33553579  0.22985116  0.11957587    -0.54600
O1092       O  0.37211325  0.25564060  0.11517909    -0.74000
C1093       C  0.38216670  0.26925710  0.12686368     0.98400
O1094       O  0.41710131  0.22398680  0.16608921    -0.62800
O1095       O  0.34549140  0.10759883  0.17647088    -0.57600
O1096       O  0.39103933  0.19523752  0.17679579    -0.94300
O1097       O  0.36354449  0.17266635  0.18124421    -0.92700
O1098       O  0.38682575  0.06372662  0.17269074    -0.93000
O1099       O  0.41792773  0.09931083  0.17108682    -0.91800
C1100       C  0.37775768  0.18742230  0.18681485     1.17200
H1101       H  0.35997950  0.07655010  0.14667295     0.33200
H1102       H  0.42299044  0.13949000  0.13601065     0.44000
H1103       H  0.36185440  0.21724580  0.14670094     0.37600
H1104       H  0.37100854  0.15028678  0.08410952     0.34000
H1105       H  0.42667201  0.04684614  0.14652769     0.25800
H1106       H  0.41951121  0.17645760  0.07096492     0.31800
H1107       H  0.36391864  0.24420584  0.07968015     0.37700
H1108       H  0.39450012  0.04345797  0.17366081     0.32100
H1109       H  0.35635392  0.10449467  0.18381630     0.31000
H1110       H  0.32409045  0.17564611  0.17084615     0.32700
H1111       H  0.33982593  0.24609877  0.12859614     0.31700
H1112       H  0.42046415  0.12379625  0.17153758     0.35700
H1113       H  0.42743341  0.20904666  0.16848797     0.28400
H1114       H  0.34714254  0.04720550  0.08711894     0.32600
H1115       H  0.33399482  0.21913761  0.08532678     0.35500
H1116       H  0.33722161  0.12045609  0.18416784     0.28100
H1117       H  0.42207162  0.24339292  0.15942782     0.40900
H1118       H  0.42686381  0.08693653  0.09635679     0.31000
H1119       H  0.42680853  0.06382909  0.12767933     0.38600
H1120       H  0.32864217  0.21300969  0.12645892     0.30500
H1121       H  0.39880827  0.18133236  0.06966784     0.30500
H1122       H  0.33888769  0.08151889  0.08050851     0.30800
Zr1123     Zr  0.36188232  0.59800689  0.10682341     2.17500
O1124       O  0.33877051  0.57329289  0.08801286    -0.51600
O1125       O  0.36875101  0.53884185  0.11271141    -0.74800
O1126       O  0.37129875  0.59131820  0.07573917    -0.81500
O1127       O  0.32699232  0.61577985  0.14306657    -0.83300
O1128       O  0.39707165  0.62035934  0.07172207    -0.78900
O1129       O  0.33062190  0.59320461  0.11553042    -0.90600
O1130       O  0.38988525  0.53659720  0.13421882    -0.76500
O1131       O  0.39352583  0.59810731  0.10995340    -0.86000
O1132       O  0.36764399  0.59218788  0.13797674    -0.85700
O1133       O  0.37145369  0.65129626  0.09463078    -0.72400
O1134       O  0.34863252  0.64576467  0.12115637    -0.84600
Zr1135     Zr  0.39651185  0.69396794  0.14310172     2.26400
Zr1136     Zr  0.40324612  0.65158196  0.09856438     2.06300
Zr1137     Zr  0.35515236  0.64069025  0.15211700     2.10000
Zr1138     Zr  0.39919392  0.59302191  0.14105388     1.78800
O1139       O  0.33077491  0.67572068  0.16288514    -0.93400
O1140       O  0.42544877  0.56431463  0.12934452    -0.41200
O1141       O  0.38688506  0.64125089  0.15559809    -0.77800
O1142       O  0.40993181  0.64517371  0.12953622    -0.96500
O1143       O  0.39009689  0.69991035  0.11223376    -0.89800
O1144       O  0.36483272  0.69392326  0.14060636    -0.92700
C1145       C  0.37895618  0.52257761  0.12345086     1.01100
C1146       C  0.32105364  0.60074536  0.12915408     1.14000
C1147       C  0.38443055  0.60139358  0.06609417     1.04800
O1148       O  0.42982360  0.62212684  0.08837811    -0.94800
O1149       O  0.43010982  0.68362821  0.10522036    -0.90600
O1150       O  0.42677273  0.70499409  0.13311323    -0.83700
C1151       C  0.43590035  0.69926996  0.11900762     1.11400
O1152       O  0.33338835  0.69005552  0.08932297    -0.96800
Zr1153     Zr  0.35841195  0.69846400  0.10961644     1.88900
O1154       O  0.38812757  0.75271445  0.13775761    -0.73400
O1155       O  0.40487511  0.69336352  0.07481234    -0.52700
O1156       O  0.36452397  0.72845726  0.08195183    -0.97400
O1157       O  0.33054758  0.72183889  0.12096825    -0.54600
O1158       O  0.36549185  0.75539602  0.11783809    -0.74000
C1159       C  0.37678652  0.76920603  0.12830400     0.98400
O1160       O  0.41975763  0.71863067  0.16182406    -0.62800
O1161       O  0.35045628  0.59823188  0.17516521    -0.57600
O1162       O  0.38859028  0.69801085  0.17446601    -0.94300
O1163       O  0.36438785  0.66560704  0.18003705    -0.92700
O1164       O  0.39299242  0.56995441  0.17046655    -0.93000
O1165       O  0.42513808  0.59516828  0.16059610    -0.91800
C1166       C  0.37674332  0.68583873  0.18499553     1.17200
H1167       H  0.36235217  0.57196206  0.14281101     0.33200
H1168       H  0.42263486  0.64415025  0.13148908     0.44000
H1169       H  0.35963793  0.71222054  0.14730871     0.37600
H1170       H  0.36827433  0.65336517  0.08221110     0.34000
H1171       H  0.42640245  0.54324030  0.13638440     0.25800
H1172       H  0.41487926  0.68569278  0.06723081     0.31800
H1173       H  0.35749631  0.74956327  0.08272364     0.37700
H1174       H  0.39713066  0.54626337  0.16989720     0.32100
H1175       H  0.34096534  0.60776493  0.18280835     0.31000
H1176       H  0.32330434  0.66038465  0.17013964     0.32700
H1177       H  0.33399790  0.73668811  0.13096729     0.31700
H1178       H  0.42373142  0.61654416  0.16723619     0.35700
H1179       H  0.41412605  0.73747818  0.16836352     0.28400
H1180       H  0.34394988  0.55218492  0.08327080     0.32600
H1181       H  0.32985781  0.71287417  0.08525824     0.35500
H1182       H  0.34467848  0.57901855  0.16907349     0.28100
H1183       H  0.42258603  0.70143854  0.17099240     0.40900
H1184       H  0.43358436  0.60830691  0.09871346     0.31000
H1185       H  0.42191337  0.55669626  0.11730526     0.38600
H1186       H  0.32448725  0.70251216  0.12672715     0.30500
H1187       H  0.39407486  0.68948065  0.06749315     0.30500
H1188       H  0.33751470  0.58845097  0.07759004     0.30800
Zr1189     Zr  0.36272803  0.34237884  0.39409055     2.17500
O1190       O  0.34132340  0.37562543  0.41115782    -0.51600
O1191       O  0.37073929  0.40110435  0.38775147    -0.74800
O1192       O  0.36993866  0.34529751  0.42612608    -0.81500
O1193       O  0.32791759  0.32327624  0.35764470    -0.83300
O1194       O  0.39618739  0.31804483  0.43086667    -0.78900
O1195       O  0.33165850  0.34704935  0.38481717    -0.90600
O1196       O  0.39326358  0.40312111  0.36779102    -0.76500
O1197       O  0.39431564  0.34302003  0.39112182    -0.86000
O1198       O  0.36857580  0.34675446  0.36290848    -0.85700
O1199       O  0.37222130  0.28910019  0.40650335    -0.72400
O1200       O  0.34942971  0.29390732  0.38016089    -0.84600
Zr1201     Zr  0.39819908  0.24537727  0.35893703     2.26400
Zr1202     Zr  0.40405116  0.29012331  0.40322325     2.06300
Zr1203     Zr  0.35612926  0.29772117  0.34915165     2.10000
Zr1204     Zr  0.40012570  0.34618310  0.35993203     1.78800
O1205       O  0.33237095  0.26069702  0.33883116    -0.93400
O1206       O  0.42827000  0.37087030  0.36958205    -0.41200
O1207       O  0.38784643  0.29741198  0.34610314    -0.77800
O1208       O  0.41116584  0.29494641  0.37217521    -0.96500
O1209       O  0.39139350  0.24078039  0.38980161    -0.89800
O1210       O  0.36641895  0.24504788  0.36095668    -0.92700
C1211       C  0.38183275  0.41727921  0.37790468     1.01100
C1212       C  0.32203782  0.33935458  0.37124209     1.14000
C1213       C  0.38272931  0.33519961  0.43632166     1.04800
O1214       O  0.42857201  0.32588563  0.41295574    -0.94800
O1215       O  0.43180981  0.26114628  0.39690925    -0.90600
O1216       O  0.42885745  0.23650868  0.36993707    -0.83700
C1217       C  0.43813591  0.24441971  0.38378554     1.11400
O1218       O  0.33598469  0.24837323  0.41378797    -0.96800
Zr1219     Zr  0.35962371  0.24127218  0.39181105     1.88900
O1220       O  0.39026980  0.18656134  0.36496589    -0.73400
O1221       O  0.40835432  0.24821687  0.42658966    -0.52700
O1222       O  0.36666195  0.20926849  0.41866344    -0.97400
O1223       O  0.33079738  0.22167620  0.38084224    -0.54600
O1224       O  0.36561178  0.18429889  0.38240170    -0.74000
C1225       C  0.37782992  0.17037067  0.37308508     0.98400
O1226       O  0.41786564  0.21926191  0.33705893    -0.62800
O1227       O  0.35051158  0.33903120  0.32571325    -0.57600
O1228       O  0.39079481  0.24164411  0.32725307    -0.94300
O1229       O  0.36627192  0.27363382  0.32124032    -0.92700
O1230       O  0.39208149  0.37364682  0.33201840    -0.93000
O1231       O  0.42380418  0.34027796  0.33799617    -0.91800
C1232       C  0.37904310  0.25396871  0.31654227     1.17200
H1233       H  0.36337964  0.36697640  0.35791774     0.33200
H1234       H  0.42384609  0.29655909  0.37018962     0.44000
H1235       H  0.36145100  0.22650317  0.35427760     0.37600
H1236       H  0.36875506  0.28628018  0.41877375     0.34000
H1237       H  0.42925091  0.39225153  0.36281947     0.25800
H1238       H  0.41662798  0.25901269  0.43513584     0.31800
H1239       H  0.36045042  0.18741232  0.41723406     0.37700
H1240       H  0.39983203  0.39382449  0.33139645     0.32100
H1241       H  0.34127400  0.32857106  0.31808603     0.31000
H1242       H  0.32692948  0.27280286  0.32863759     0.32700
H1243       H  0.32866775  0.20007997  0.38711679     0.31700
H1244       H  0.42093346  0.31915106  0.33160678     0.35700
H1245       H  0.42827350  0.23448622  0.33591803     0.28400
H1246       H  0.34839550  0.39234646  0.41792585     0.32600
H1247       H  0.33220275  0.22533197  0.41718914     0.35500
H1248       H  0.34430860  0.35800891  0.33160315     0.28100
H1249       H  0.42255983  0.19856983  0.34280539     0.40900
H1250       H  0.43632267  0.32825860  0.40236557     0.31000
H1251       H  0.42611891  0.37801943  0.38201245     0.38600
H1252       H  0.33287177  0.21514155  0.36831358     0.30500
H1253       H  0.39677869  0.24734403  0.43291219     0.30500
H1254       H  0.33635955  0.36015391  0.42023416     0.30800
Zr1255     Zr  0.36328590  0.84067211  0.39243995     2.17500
O1256       O  0.34165764  0.87231524  0.41006498    -0.51600
O1257       O  0.36969863  0.90007151  0.38555987    -0.74800
O1258       O  0.37146150  0.84427969  0.42431311    -0.81500
O1259       O  0.32837615  0.81874960  0.35651454    -0.83300
O1260       O  0.39664149  0.81351563  0.42923863    -0.78900
O1261       O  0.33156590  0.83991238  0.38439825    -0.90600
O1262       O  0.39146181  0.90323273  0.36468597    -0.76500
O1263       O  0.39496484  0.84149706  0.38965600    -0.86000
O1264       O  0.36921572  0.84651394  0.36128349    -0.85700
O1265       O  0.37308834  0.78714376  0.40441014    -0.72400
O1266       O  0.35075838  0.79241044  0.37774364    -0.84600
Zr1267     Zr  0.39929603  0.74600499  0.35622548     2.26400
Zr1268     Zr  0.40496960  0.78817007  0.40115350     2.06300
Zr1269     Zr  0.35726265  0.79777482  0.34681847     2.10000
Zr1270     Zr  0.40085149  0.84658471  0.35853169     1.78800
O1271       O  0.33250233  0.76600807  0.33421550    -0.93400
O1272       O  0.42687603  0.87670394  0.36973671    -0.41200
O1273       O  0.38903622  0.79828737  0.34367088    -0.77800
O1274       O  0.41196387  0.79485272  0.37028101    -0.96500
O1275       O  0.39248022  0.73982166  0.38696025    -0.89800
O1276       O  0.36754755  0.74477068  0.35820353    -0.92700
C1277       C  0.37990741  0.91669240  0.37493770     1.01100
C1278       C  0.32202750  0.83199327  0.37074864     1.14000
C1279       C  0.38373961  0.83220426  0.43455932     1.04800
O1280       O  0.43002489  0.82150366  0.41187118    -0.94800
O1281       O  0.43239557  0.75793408  0.39471733    -0.90600
O1282       O  0.42889898  0.73267206  0.36773225    -0.83700
C1283       C  0.43800297  0.73993232  0.38169944     1.11400
O1284       O  0.33376963  0.74617183  0.40673765    -0.96800
Zr1285     Zr  0.36081989  0.73972702  0.38904060     1.88900
O1286       O  0.39218539  0.68671598  0.36100004    -0.73400
O1287       O  0.40974524  0.74288000  0.42256979    -0.52700
O1288       O  0.36411777  0.71372838  0.41826362    -0.97400
O1289       O  0.33528127  0.71138912  0.37553570    -0.54600
O1290       O  0.37183436  0.68383574  0.38332386    -0.74000
C1291       C  0.38265220  0.67036843  0.37227446     0.98400
O1292       O  0.42398257  0.72873357  0.33709331    -0.62800
O1293       O  0.35354321  0.84275154  0.32494001    -0.57600
O1294       O  0.39098959  0.73930151  0.32510563    -0.94300
O1295       O  0.36617387  0.77038131  0.31929409    -0.92700
O1296       O  0.39433506  0.86847177  0.32892714    -0.93000
O1297       O  0.42712777  0.84275846  0.33958171    -0.91800
C1298       C  0.37881452  0.75039766  0.31459339     1.17200
H1299       H  0.36377495  0.86655476  0.35636784     0.33200
H1300       H  0.42469328  0.79578175  0.36851338     0.44000
H1301       H  0.36269516  0.72628689  0.35139646     0.37600
H1302       H  0.36947587  0.78406889  0.41661055     0.34000
H1303       H  0.42731985  0.89787709  0.36273431     0.25800
H1304       H  0.41392050  0.75415441  0.43355116     0.31800
H1305       H  0.35760510  0.69207743  0.41742937     0.37700
H1306       H  0.40308416  0.88683586  0.32708833     0.32100
H1307       H  0.34829255  0.83156227  0.31439746     0.31000
H1308       H  0.32817264  0.77999885  0.32416278     0.32700
H1309       H  0.34031555  0.69257369  0.36850707     0.31700
H1310       H  0.42705112  0.81926836  0.33514068     0.35700
H1311       H  0.42006982  0.70774706  0.33113569     0.28400
H1312       H  0.34852190  0.89037627  0.41604039     0.32600
H1313       H  0.32945783  0.72304011  0.40921285     0.35500
H1314       H  0.34377628  0.85697829  0.32964669     0.28100
H1315       H  0.42471393  0.74589225  0.32752458     0.40900
H1316       H  0.42595004  0.84520028  0.41096621     0.31000
H1317       H  0.42351843  0.88397028  0.38187904     0.38600
H1318       H  0.33074244  0.72752810  0.36652772     0.30500
H1319       H  0.39765809  0.73450255  0.42543538     0.30500
H1320       H  0.33789501  0.85693478  0.41976288     0.30800
Zr1321     Zr  0.64481535  0.33786002  0.10987433     2.17500
O1322       O  0.66743479  0.36555930  0.09160518    -0.51600
O1323       O  0.63691698  0.39696900  0.11495507    -0.74800
O1324       O  0.63687111  0.34171346  0.07825389    -0.81500
O1325       O  0.67981081  0.31513809  0.14550982    -0.83300
O1326       O  0.61112406  0.31291200  0.07315760    -0.78900
O1327       O  0.67612437  0.34175375  0.11889775    -0.90600
O1328       O  0.61480598  0.39979981  0.13547721    -0.76500
O1329       O  0.61316008  0.33873352  0.11260845    -0.86000
O1330       O  0.63881312  0.34370659  0.14091395    -0.85700
O1331       O  0.63495358  0.28463602  0.09788752    -0.72400
O1332       O  0.65751634  0.28920015  0.12415906    -0.84600
Zr1333     Zr  0.60950015  0.24202610  0.14610462     2.26400
Zr1334     Zr  0.60312826  0.28563022  0.10109155     2.06300
Zr1335     Zr  0.65104256  0.29477425  0.15506693     2.10000
Zr1336     Zr  0.60720123  0.34310162  0.14369894     1.78800
O1337       O  0.67540759  0.26219958  0.16798451    -0.93400
O1338       O  0.57956737  0.36701287  0.13203224    -0.41200
O1339       O  0.61932616  0.29467757  0.15849456    -0.77800
O1340       O  0.59644355  0.29107106  0.13217913    -0.96500
O1341       O  0.61564928  0.23654940  0.11509938    -0.89800
O1342       O  0.64118899  0.24161705  0.14365901    -0.92700
C1343       C  0.62586203  0.41339915  0.12471175     1.01100
C1344       C  0.68577133  0.33105218  0.13190850     1.14000
C1345       C  0.62437586  0.33093846  0.06801598     1.04800
O1346       O  0.57809870  0.32104056  0.09213225    -0.94800
O1347       O  0.57616610  0.25390842  0.10767983    -0.90600
O1348       O  0.57949542  0.23065506  0.13520101    -0.83700
C1349       C  0.57035608  0.23708066  0.12109941     1.11400
O1350       O  0.67129662  0.24291300  0.09102803    -0.96800
Zr1351     Zr  0.64727555  0.23666906  0.11266909     1.88900
O1352       O  0.61702521  0.18269526  0.14132737    -0.73400
O1353       O  0.59856914  0.24545685  0.07702714    -0.52700
O1354       O  0.63852084  0.20736166  0.08555804    -0.97400
O1355       O  0.67585969  0.21249162  0.12145403    -0.54600
O1356       O  0.64075437  0.18021271  0.12262096    -0.74000
C1357       C  0.62905241  0.16649514  0.13266654     0.98400
O1358       O  0.58554321  0.22142915  0.16522551    -0.62800
O1359       O  0.65567472  0.34034265  0.17633046    -0.57600
O1360       O  0.61825114  0.23596621  0.17746199    -0.94300
O1361       O  0.64221768  0.26949157  0.18295192    -0.92700
O1362       O  0.61419521  0.37104867  0.17168686    -0.93000
O1363       O  0.58255417  0.34037197  0.16474524    -0.91800
C1364       C  0.63001670  0.24891735  0.18788114     1.17200
H1365       H  0.64402068  0.36405746  0.14565947     0.33200
H1366       H  0.58372572  0.29204489  0.13409188     0.44000
H1367       H  0.64637364  0.22329692  0.15041570     0.37600
H1368       H  0.63842103  0.28183864  0.08566291     0.34000
H1369       H  0.57841764  0.38918221  0.13796191     0.25800
H1370       H  0.58998139  0.25664079  0.06889891     0.31800
H1371       H  0.64411862  0.18480165  0.08651297     0.37700
H1372       H  0.60783267  0.39292308  0.17109736     0.32100
H1373       H  0.66000270  0.32906300  0.18728670     0.31000
H1374       H  0.67951655  0.27571319  0.17826776     0.32700
H1375       H  0.67593436  0.18948573  0.11636628     0.31700
H1376       H  0.58242061  0.31660771  0.16881761     0.35700
H1377       H  0.59033196  0.20110955  0.17125752     0.28400
H1378       H  0.66129656  0.38443499  0.08547917     0.32600
H1379       H  0.67309789  0.22027235  0.08579846     0.35500
H1380       H  0.66618654  0.35283161  0.17184432     0.28100
H1381       H  0.58412379  0.23847428  0.17473450     0.40900
H1382       H  0.56975870  0.32034274  0.10233454     0.31000
H1383       H  0.58222575  0.37264552  0.11947111     0.38600
H1384       H  0.67493260  0.20901971  0.13446877     0.30500
H1385       H  0.60996612  0.24526114  0.07037562     0.30500
H1386       H  0.67049554  0.34934043  0.08207293     0.30800
Zr1387     Zr  0.64630517  0.83723931  0.10992838     2.17500
O1388       O  0.67045742  0.85702549  0.09079220    -0.51600
O1389       O  0.64243485  0.89688167  0.11660843    -0.74800
O1390       O  0.63660872  0.85010688  0.07935239    -0.81500
O1391       O  0.68038898  0.80423648  0.14417885    -0.83300
O1392       O  0.60883859  0.82903219  0.07501256    -0.78900
O1393       O  0.67757204  0.83585519  0.11911907    -0.90600
O1394       O  0.62183830  0.90106976  0.13863994    -0.76500
O1395       O  0.61508776  0.84463573  0.11432287    -0.86000
O1396       O  0.64187751  0.83906284  0.14145259    -0.85700
O1397       O  0.63289967  0.78890459  0.09607086    -0.72400
O1398       O  0.65652320  0.78447825  0.12188806    -0.84600
Zr1399     Zr  0.60646107  0.74442281  0.14390010     2.26400
Zr1400     Zr  0.60154743  0.79604804  0.10116279     2.06300
Zr1401     Zr  0.65117065  0.78556600  0.15326385     2.10000
Zr1402     Zr  0.61068638  0.84551805  0.14571032     1.78800
O1403       O  0.67243707  0.74186042  0.16170008    -0.93400
O1404       O  0.58443511  0.87953336  0.13891277    -0.41200
O1405       O  0.61988360  0.79252518  0.15783118    -0.77800
O1406       O  0.59607652  0.79806111  0.13257722    -0.96500
O1407       O  0.61145687  0.74286718  0.11260772    -0.89800
O1408       O  0.63773954  0.73706233  0.13999893    -0.92700
C1409       C  0.63303794  0.91385843  0.12768835     1.01100
C1410       C  0.68691322  0.82222736  0.13160997     1.14000
C1411       C  0.62264256  0.84518839  0.06968424     1.04800
O1412       O  0.57664086  0.83400768  0.09536682    -0.94800
O1413       O  0.57337499  0.76821532  0.10636105    -0.90600
O1414       O  0.57597459  0.74076144  0.13283932    -0.83700
C1415       C  0.56705681  0.75039389  0.11911996     1.11400
O1416       O  0.66705295  0.73836633  0.08708541    -0.96800
Zr1417     Zr  0.64275739  0.73670178  0.10865030     1.88900
O1418       O  0.61232854  0.68456893  0.13792320    -0.73400
O1419       O  0.59631293  0.76013174  0.07542863    -0.52700
O1420       O  0.63332296  0.71410405  0.08001271    -0.97400
O1421       O  0.66911583  0.70541655  0.11832478    -0.54600
O1422       O  0.63141261  0.68148695  0.11470233    -0.74000
C1423       C  0.62125615  0.66784619  0.12630067     0.98400
O1424       O  0.58254535  0.71824430  0.16109485    -0.62800
O1425       O  0.66049508  0.82262355  0.17739770    -0.57600
O1426       O  0.61312450  0.74045817  0.17591172    -0.94300
O1427       O  0.64093301  0.76084970  0.18108963    -0.92700
O1428       O  0.62186254  0.86444640  0.17444028    -0.93000
O1429       O  0.58692545  0.84469671  0.16778329    -0.91800
C1430       C  0.62634592  0.74701594  0.18630222     1.17200
H1431       H  0.64853523  0.85726453  0.14679207     0.33200
H1432       H  0.58352979  0.80126795  0.13493588     0.44000
H1433       H  0.64196510  0.71672340  0.14571362     0.37600
H1434       H  0.63556168  0.78794249  0.08352114     0.34000
H1435       H  0.58639822  0.90113684  0.14520113     0.25800
H1436       H  0.58715002  0.77223031  0.06836055     0.31800
H1437       H  0.63827359  0.69095746  0.07961558     0.37700
H1438       H  0.61562976  0.88606791  0.17661975     0.32100
H1439       H  0.66897998  0.80900201  0.18452858     0.31000
H1440       H  0.67875139  0.75103066  0.17220787     0.32700
H1441       H  0.66468417  0.68801716  0.12668468     0.31700
H1442       H  0.58667399  0.82109482  0.17210487     0.35700
H1443       H  0.58820380  0.70063258  0.16858013     0.28400
H1444       H  0.66656262  0.87924185  0.08614914     0.32600
H1445       H  0.66938674  0.71460681  0.08378276     0.35500
H1446       H  0.66796438  0.84021369  0.17175197     0.28100
H1447       H  0.57841299  0.73572913  0.16951489     0.40900
H1448       H  0.58179813  0.85692164  0.09620054     0.31000
H1449       H  0.58565651  0.88531476  0.12614980     0.38600
H1450       H  0.67578318  0.72142839  0.12592217     0.30500
H1451       H  0.60732339  0.76182965  0.06821653     0.30500
H1452       H  0.67049329  0.84185908  0.08033753     0.30800
Zr1453     Zr  0.64684182  0.09695264  0.39407284     2.17500
O1454       O  0.66962221  0.06367516  0.40930352    -0.51600
O1455       O  0.63833611  0.03859140  0.38691588    -0.74800
O1456       O  0.63953783  0.09053684  0.42603822    -0.81500
O1457       O  0.68188315  0.12145359  0.35846186    -0.83300
O1458       O  0.61321993  0.11734468  0.43077134    -0.78900
O1459       O  0.67829799  0.09584668  0.38531416    -0.90600
O1460       O  0.61690217  0.03862530  0.36559085    -0.76500
O1461       O  0.61534921  0.09512227  0.38980381    -0.86000
O1462       O  0.64192176  0.09683084  0.36260518    -0.85700
O1463       O  0.63603070  0.14789230  0.40790265    -0.72400
O1464       O  0.65962291  0.14805907  0.38241112    -0.84600
Zr1465     Zr  0.61101409  0.19724443  0.36109695     2.26400
Zr1466     Zr  0.60430618  0.14556156  0.40344560     2.06300
Zr1467     Zr  0.65390888  0.14850451  0.35112786     2.10000
Zr1468     Zr  0.61047048  0.09638541  0.35840766     1.78800
O1469       O  0.67869491  0.18555362  0.34360285    -0.93400
O1470       O  0.58129153  0.07363070  0.36613837    -0.41200
O1471       O  0.62233047  0.14765890  0.34665269    -0.77800
O1472       O  0.59838195  0.14532135  0.37206024    -0.96500
O1473       O  0.61659101  0.19731156  0.39233721    -0.89800
O1474       O  0.64267199  0.19894791  0.36453110    -0.92700
C1475       C  0.62742812  0.02346429  0.37636387     1.01100
C1476       C  0.68783409  0.10492635  0.37189834     1.14000
C1477       C  0.62670181  0.10017200  0.43627844     1.04800
O1478       O  0.58150926  0.10401124  0.41061074    -0.94800
O1479       O  0.57632319  0.17438749  0.39703404    -0.90600
O1480       O  0.57999700  0.20328021  0.37112583    -0.83700
C1481       C  0.57038057  0.19275585  0.38421185     1.11400
O1482       O  0.67148467  0.19153840  0.41818206    -0.96800
Zr1483     Zr  0.64820114  0.19819756  0.39571737     1.88900
O1484       O  0.61928549  0.25541374  0.36814439    -0.73400
O1485       O  0.59587962  0.18176667  0.42820220    -0.52700
O1486       O  0.63873795  0.22224986  0.42400364    -0.97400
O1487       O  0.67672778  0.22277160  0.38704479    -0.54600
O1488       O  0.64097935  0.25584239  0.38918137    -0.74000
C1489       C  0.63009180  0.27072417  0.37866704     0.98400
O1490       O  0.58911127  0.22989548  0.34422497    -0.62800
O1491       O  0.65896409  0.11175434  0.32566005    -0.57600
O1492       O  0.61822981  0.20072058  0.32920357    -0.94300
O1493       O  0.64593159  0.17918579  0.32439471    -0.92700
O1494       O  0.61904506  0.07259077  0.32979091    -0.93000
O1495       O  0.58810483  0.10236495  0.33508086    -0.91800
C1496       C  0.63168338  0.19411300  0.31913078     1.17200
H1497       H  0.64754768  0.07750895  0.35718237     0.33200
H1498       H  0.58581136  0.14342811  0.36951881     0.44000
H1499       H  0.64776698  0.21855193  0.35883041     0.37600
H1500       H  0.63931307  0.14986571  0.42026747     0.34000
H1501       H  0.58091937  0.05112003  0.36047850     0.25800
H1502       H  0.58843144  0.16733061  0.43597812     0.31800
H1503       H  0.64441218  0.24476486  0.42450117     0.37700
H1504       H  0.62824648  0.05542911  0.33256381     0.32100
H1505       H  0.66883825  0.12251219  0.31900439     0.31000
H1506       H  0.68439770  0.17487745  0.33315219     0.32700
H1507       H  0.67386782  0.23883373  0.37734325     0.31700
H1508       H  0.58639689  0.12702449  0.33386955     0.35700
H1509       H  0.59592969  0.24786320  0.33809496     0.28400
H1510       H  0.66347128  0.04301325  0.41340018     0.32600
H1511       H  0.67454493  0.21467206  0.42206147     0.35500
H1512       H  0.66426076  0.09088131  0.33062357     0.28100
H1513       H  0.58490048  0.21479753  0.33461864     0.40900
H1514       H  0.58809107  0.08286343  0.41312275     0.31000
H1515       H  0.58202998  0.06880106  0.37904364     0.38600
H1516       H  0.68320527  0.20419717  0.38108197     0.30500
H1517       H  0.60705879  0.18520056  0.43500231     0.30500
H1518       H  0.67262211  0.07623625  0.42028358     0.30800
Zr1519     Zr  0.64975335  0.60216378  0.39395939     2.17500
O1520       O  0.67504308  0.58077333  0.41112659    -0.51600
O1521       O  0.64494268  0.54202168  0.38875585    -0.74800
O1522       O  0.64274368  0.59364894  0.42553902    -0.81500
O1523       O  0.68229470  0.63152513  0.35741678    -0.83300
O1524       O  0.61484329  0.61360310  0.43113075    -0.78900
O1525       O  0.68059279  0.60156756  0.38323212    -0.90600
O1526       O  0.62260464  0.53566627  0.36864041    -0.76500
O1527       O  0.61830331  0.59449062  0.39182612    -0.86000
O1528       O  0.64327863  0.59722657  0.36295771    -0.85700
O1529       O  0.63690333  0.65194094  0.40726552    -0.72400
O1530       O  0.65929482  0.65398897  0.38042531    -0.84600
Zr1531     Zr  0.60740413  0.69118346  0.36018282     2.26400
Zr1532     Zr  0.60522950  0.64409329  0.40459420     2.06300
Zr1533     Zr  0.65221491  0.64932317  0.34949974     2.10000
Zr1534     Zr  0.61180754  0.59067680  0.36084481     1.78800
O1535       O  0.67264212  0.69232225  0.33854187    -0.93400
O1536       O  0.58567137  0.56061473  0.37182883    -0.41200
O1537       O  0.62059301  0.64212632  0.34682937    -0.77800
O1538       O  0.59801966  0.63887830  0.37359831    -0.96500
O1539       O  0.61418796  0.69621699  0.39106509    -0.89800
O1540       O  0.63890739  0.69888852  0.36193915    -0.92700
C1541       C  0.63452861  0.52391129  0.37913093     1.01100
C1542       C  0.68933564  0.61422922  0.37009792     1.14000
C1543       C  0.62940500  0.59901083  0.43591626     1.04800
O1544       O  0.58199344  0.60542033  0.41438066    -0.94800
O1545       O  0.57582370  0.66855112  0.39925396    -0.90600
O1546       O  0.57716707  0.69437137  0.37221617    -0.83700
C1547       C  0.56868647  0.68475680  0.38622345     1.11400
O1548       O  0.66960819  0.70374082  0.41484870    -0.96800
Zr1549     Zr  0.64570589  0.70308892  0.39280300     1.88900
O1550       O  0.61212306  0.75160645  0.36487672    -0.73400
O1551       O  0.60102304  0.68390640  0.42887385    -0.52700
O1552       O  0.63730298  0.73231317  0.42002394    -0.97400
O1553       O  0.67230360  0.73078905  0.38111984    -0.54600
O1554       O  0.63523351  0.75807441  0.38413407    -0.74000
C1555       C  0.62299949  0.76979070  0.37396105     0.98400
O1556       O  0.58181391  0.70991974  0.34257182    -0.62800
O1557       O  0.66057601  0.60976001  0.32613075    -0.57600
O1558       O  0.61383077  0.69744769  0.32829961    -0.94300
O1559       O  0.64005021  0.67128033  0.32184669    -0.92700
O1560       O  0.62010031  0.56545622  0.33252868    -0.93000
O1561       O  0.58690956  0.59077043  0.33997261    -0.91800
C1562       C  0.62603150  0.68791633  0.31737389     1.17200
H1563       H  0.64955679  0.57843022  0.35771845     0.33200
H1564       H  0.58543070  0.63491734  0.37191038     0.44000
H1565       H  0.64261706  0.71865209  0.35538576     0.37600
H1566       H  0.64038393  0.65442689  0.41957049     0.34000
H1567       H  0.58536270  0.53940174  0.36490878     0.25800
H1568       H  0.59110926  0.67431821  0.43595643     0.31800
H1569       H  0.62442039  0.73724840  0.41863939     0.37700
H1570       H  0.61350793  0.54384096  0.33213375     0.32100
H1571       H  0.66762702  0.62328948  0.31757337     0.31000
H1572       H  0.67882688  0.68161296  0.32838042     0.32700
H1573       H  0.66804558  0.74525809  0.37123089     0.31700
H1574       H  0.58539690  0.61476129  0.33660418     0.35700
H1575       H  0.58580169  0.73013869  0.33592382     0.28400
H1576       H  0.67073395  0.56021965  0.41726851     0.32600
H1577       H  0.67285177  0.72777907  0.41631346     0.35500
H1578       H  0.66937701  0.59428330  0.33163822     0.28100
H1579       H  0.57990390  0.69231952  0.33343335     0.40900
H1580       H  0.57511640  0.60017753  0.40347217     0.31000
H1581       H  0.58894669  0.55341848  0.38403104     0.38600
H1582       H  0.67911777  0.71259192  0.37520573     0.30500
H1583       H  0.61169103  0.68111883  0.43653155     0.30500
H1584       H  0.67711812  0.59744802  0.42068845     0.30800
Zr1585     Zr  0.86246598  0.09491063  0.39369201     2.17500
O1586       O  0.83944450  0.12387454  0.41081483    -0.51600
O1587       O  0.86827136  0.15493339  0.38772525    -0.74800
O1588       O  0.86992648  0.09987223  0.42537829    -0.81500
O1589       O  0.82824325  0.06957848  0.35822688    -0.83300
O1590       O  0.89746422  0.07760919  0.43005368    -0.78900
O1591       O  0.83101053  0.09483151  0.38522319    -0.90600
O1592       O  0.89047812  0.15934416  0.36740287    -0.76500
O1593       O  0.89395169  0.10009582  0.39049350    -0.86000
O1594       O  0.86784398  0.09967577  0.36247244    -0.85700
O1595       O  0.87417550  0.04326818  0.40635138    -0.72400
O1596       O  0.85135501  0.04384767  0.38034781    -0.84600
Zr1597     Zr  0.90121006  0.00304243  0.35816892     2.26400
Zr1598     Zr  0.90583329  0.04885315  0.40274284     2.06300
Zr1599     Zr  0.85722954  0.04868119  0.34926032     2.10000
Zr1600     Zr  0.89935382  0.10357053  0.35923277     1.78800
O1601       O  0.83346470  0.01198643  0.33860127    -0.93400
O1602       O  0.92688091  0.13098805  0.36855190    -0.41200
O1603       O  0.88876612  0.05332554  0.34528257    -0.77800
O1604       O  0.91233590  0.05397604  0.37158634    -0.96500
O1605       O  0.89537731  0.99795046  0.38924576    -0.89800
O1606       O  0.86965619  0.99756566  0.36097588    -0.92700
C1607       C  0.87879893  0.17216522  0.37771397     1.01100
C1608       C  0.82175817  0.08461771  0.37188171     1.14000
C1609       C  0.88322507  0.09237119  0.43547732     1.04800
O1610       O  0.93059582  0.08474161  0.41172281    -0.94800
O1611       O  0.93377142  0.01999699  0.39687301    -0.90600
O1612       O  0.93116017  0.99372420  0.37011298    -0.83700
C1613       C  0.94003402  0.00207735  0.38411561     1.11400
O1614       O  0.83597896  0.99436045  0.40861446    -0.96800
Zr1615     Zr  0.86392459  0.99290441  0.39201419     1.88900
O1616       O  0.89654155  0.94300088  0.36373779    -0.73400
O1617       O  0.91012699  0.00887261  0.42702305    -0.52700
O1618       O  0.86808344  0.97110472  0.42209655    -0.97400
O1619       O  0.84042290  0.95752986  0.37948117    -0.54600
O1620       O  0.87836006  0.93873890  0.38781467    -0.74000
C1621       C  0.88880593  0.92604699  0.37609976     0.98400
O1622       O  0.92623465  0.98989511  0.33860855    -0.62800
O1623       O  0.85133925  0.09109937  0.32650456    -0.57600
O1624       O  0.89235440  0.99420265  0.32699914    -0.94300
O1625       O  0.86644138  0.02222045  0.32176894    -0.92700
O1626       O  0.89058873  0.13318556  0.33213979    -0.93000
O1627       O  0.92259905  0.10031642  0.33668951    -0.91800
C1628       C  0.87956506  0.00380191  0.31669698     1.17200
H1629       H  0.86179526  0.11902645  0.35746555     0.33200
H1630       H  0.92501779  0.05621616  0.36969170     0.44000
H1631       H  0.86538425  0.97818898  0.35447845     0.37600
H1632       H  0.87094935  0.04042298  0.41869004     0.34000
H1633       H  0.92695866  0.15277871  0.36208814     0.25800
H1634       H  0.91902396  0.01976586  0.43488151     0.31800
H1635       H  0.88023393  0.96130001  0.42213313     0.37700
H1636       H  0.89770008  0.15422333  0.33216150     0.32100
H1637       H  0.86265155  0.09286996  0.31977662     0.31000
H1638       H  0.82918219  0.02272589  0.32747531     0.32700
H1639       H  0.84663092  0.93941356  0.37288601     0.31700
H1640       H  0.92242427  0.07653936  0.33270142     0.35700
H1641       H  0.92338561  0.96787638  0.33312239     0.28400
H1642       H  0.84553792  0.14246587  0.41715722     0.32600
H1643       H  0.83412895  0.97115797  0.41314842     0.35500
H1644       H  0.84296346  0.08008160  0.31814281     0.28100
H1645       H  0.92568445  0.00648351  0.32874882     0.40900
H1646       H  0.92554472  0.10781250  0.41201555     0.31000
H1647       H  0.92482410  0.13722966  0.38113262     0.38600
H1648       H  0.83478498  0.97160398  0.37013329     0.30500
H1649       H  0.89886836  0.00964736  0.43388677     0.30500
H1650       H  0.83569718  0.10792775  0.42023522     0.30800
Zr1651     Zr  0.86399030  0.59775362  0.39482931     2.17500
O1652       O  0.84153268  0.62995246  0.41107090    -0.51600
O1653       O  0.87284160  0.65691037  0.39027463    -0.74800
O1654       O  0.86978612  0.59941624  0.42701900    -0.81500
O1655       O  0.83090819  0.57998883  0.35682067    -0.83300
O1656       O  0.89482719  0.56909013  0.43333187    -0.78900
O1657       O  0.83287515  0.60073600  0.38489310    -0.90600
O1658       O  0.89805779  0.65881698  0.37374293    -0.76500
O1659       O  0.89576815  0.59680583  0.39435704    -0.86000
O1660       O  0.87225792  0.60457960  0.36433809    -0.85700
O1661       O  0.87216139  0.54322532  0.40676219    -0.72400
O1662       O  0.85153707  0.55037698  0.37927116    -0.84600
Zr1663     Zr  0.90069588  0.50191762  0.36009348     2.26400
Zr1664     Zr  0.90416322  0.54254036  0.40580323     2.06300
Zr1665     Zr  0.86009103  0.55703856  0.34890982     2.10000
Zr1666     Zr  0.90401863  0.60244759  0.36385648     1.78800
O1667       O  0.83610109  0.52584649  0.33456350    -0.93400
O1668       O  0.93194612  0.62204873  0.37690061    -0.41200
O1669       O  0.89202718  0.55558550  0.34776831    -0.77800
O1670       O  0.91336035  0.54938077  0.37546277    -0.96500
O1671       O  0.89211063  0.49496810  0.39035752    -0.89800
O1672       O  0.86890688  0.50292836  0.36018812    -0.92700
C1673       C  0.88568312  0.67299040  0.38271712     1.01100
C1674       C  0.82399314  0.59368666  0.37070183     1.14000
C1675       C  0.88154709  0.58760275  0.43785622     1.04800
O1676       O  0.92924905  0.57502826  0.41716087    -0.94800
O1677       O  0.93122091  0.51029053  0.40081695    -0.90600
O1678       O  0.92912145  0.48626154  0.37358433    -0.83700
C1679       C  0.93762569  0.49255966  0.38809425     1.11400
O1680       O  0.83445307  0.49938015  0.40992215    -0.96800
Zr1681     Zr  0.86041070  0.49642951  0.39044301     1.88900
O1682       O  0.89278946  0.44249348  0.36378236    -0.73400
O1683       O  0.90599764  0.49939846  0.42886794    -0.52700
O1684       O  0.86515525  0.46620671  0.41834411    -0.97400
O1685       O  0.83327611  0.47529775  0.37640959    -0.54600
O1686       O  0.86843161  0.43975962  0.38158720    -0.74000
C1687       C  0.88068560  0.42597431  0.37219251     0.98400
O1688       O  0.92630110  0.48693485  0.34164350    -0.62800
O1689       O  0.85773466  0.60244785  0.32709468    -0.57600
O1690       O  0.89338530  0.49477299  0.32866405    -0.94300
O1691       O  0.87042168  0.52999671  0.32181004    -0.92700
O1692       O  0.89913851  0.63614262  0.33716257    -0.93000
O1693       O  0.92859465  0.59852647  0.34276433    -0.91800
C1694       C  0.88238706  0.50822834  0.31759461     1.17200
H1695       H  0.86776017  0.62550859  0.35949539     0.33200
H1696       H  0.92619939  0.54946291  0.37448189     0.44000
H1697       H  0.86410369  0.48509521  0.35287203     0.37600
H1698       H  0.86777489  0.54003906  0.41870580     0.34000
H1699       H  0.93486649  0.64293424  0.37027101     0.25800
H1700       H  0.91501376  0.50800218  0.43736443     0.31800
H1701       H  0.86026744  0.44334907  0.41630966     0.37700
H1702       H  0.89478088  0.61986404  0.32818400     0.32100
H1703       H  0.85068669  0.59271987  0.31721109     0.31000
H1704       H  0.83234333  0.54020933  0.32443030     0.32700
H1705       H  0.83735268  0.45954609  0.36705403     0.31700
H1706       H  0.92705775  0.57623588  0.33705724     0.35700
H1707       H  0.92302696  0.46575238  0.33549656     0.28400
H1708       H  0.84814663  0.64790556  0.41740493     0.32600
H1709       H  0.83041602  0.47579987  0.41154085     0.35500
H1710       H  0.84963175  0.61921522  0.33254677     0.28100
H1711       H  0.92689000  0.50428953  0.33216295     0.40900
H1712       H  0.93733476  0.57772525  0.40684669     0.31000
H1713       H  0.92865344  0.63000946  0.38893745     0.38600
H1714       H  0.82843002  0.49487785  0.36977333     0.30500
H1715       H  0.89454230  0.50090446  0.43535435     0.30500
H1716       H  0.83708281  0.61477077  0.42056229     0.30800
Zr1717     Zr  0.86034404  0.35401932  0.11099000     2.17500
O1718       O  0.83833509  0.32476165  0.09270011    -0.51600
O1719       O  0.86718646  0.29533316  0.11805949    -0.74800
O1720       O  0.87053805  0.34566494  0.08011088    -0.81500
O1721       O  0.82396090  0.37769044  0.14547818    -0.83300
O1722       O  0.89780671  0.36997428  0.07728327    -0.78900
O1723       O  0.82860410  0.35287285  0.11861261    -0.90600
O1724       O  0.88670982  0.29317003  0.14115286    -0.76500
O1725       O  0.89163582  0.35130307  0.11634691    -0.86000
O1726       O  0.86405038  0.35192533  0.14260684    -0.85700
O1727       O  0.87209025  0.40483334  0.09784899    -0.72400
O1728       O  0.84722166  0.40456774  0.12273885    -0.84600
Zr1729     Zr  0.89497586  0.45116796  0.14646738     2.26400
Zr1730     Zr  0.90351236  0.40220766  0.10395596     2.06300
Zr1731     Zr  0.85174806  0.40314966  0.15427067     2.10000
Zr1732     Zr  0.89535992  0.35011686  0.14782032     1.78800
O1733       O  0.82861650  0.44405845  0.16154423    -0.93400
O1734       O  0.92264465  0.32058245  0.13958991    -0.41200
O1735       O  0.88305732  0.40082682  0.15958424    -0.77800
O1736       O  0.90829024  0.39992649  0.13544468    -0.96500
O1737       O  0.89076036  0.45323541  0.11510168    -0.89800
O1738       O  0.86351160  0.45394324  0.14171144    -0.92700
C1739       C  0.87663626  0.27928635  0.12955801     1.01100
C1740       C  0.81852835  0.36207472  0.13158480     1.14000
C1741       C  0.88456452  0.35324315  0.07105055     1.04800
O1742       O  0.92961026  0.36685243  0.09895047    -0.94800
O1743       O  0.93033519  0.43379000  0.11065146    -0.90600
O1744       O  0.92607422  0.45874962  0.13746152    -0.83700
C1745       C  0.93577731  0.45122983  0.12394891     1.11400
O1746       O  0.83844916  0.44749380  0.08558356    -0.96800
Zr1747     Zr  0.85936556  0.45479300  0.11020675     1.88900
O1748       O  0.88779911  0.50986590  0.13911240    -0.73400
O1749       O  0.90922665  0.43957575  0.07883849    -0.52700
O1750       O  0.87029779  0.48433489  0.08390621    -0.97400
O1751       O  0.83010239  0.47833762  0.11707881    -0.54600
O1752       O  0.86588231  0.51193402  0.11832196    -0.74000
C1753       C  0.87703492  0.52600644  0.12882619     0.98400
O1754       O  0.91289209  0.48180866  0.16823843    -0.62800
O1755       O  0.84220978  0.36381302  0.17732003    -0.57600
O1756       O  0.88776635  0.45142724  0.17815570    -0.94300
O1757       O  0.86076664  0.42690780  0.18272017    -0.92700
O1758       O  0.88643102  0.32748948  0.17662630    -0.93000
O1759       O  0.91916659  0.35509544  0.16979020    -0.91800
C1760       C  0.87486769  0.44200367  0.18826900     1.17200
H1761       H  0.85805262  0.33263670  0.14770431     0.33200
H1762       H  0.92084495  0.39833830  0.13819317     0.44000
H1763       H  0.85834636  0.47344445  0.14741647     0.37600
H1764       H  0.86976456  0.40625770  0.08523277     0.34000
H1765       H  0.92330995  0.30109278  0.14783150     0.25800
H1766       H  0.91834952  0.42770759  0.07167009     0.31800
H1767       H  0.86284630  0.50489807  0.08293991     0.37700
H1768       H  0.88639763  0.34716528  0.18471855     0.32100
H1769       H  0.85317181  0.35847498  0.18413140     0.31000
H1770       H  0.82319825  0.43545413  0.17267269     0.32700
H1771       H  0.83185918  0.49136573  0.12816515     0.31700
H1772       H  0.92222519  0.37937410  0.16989060     0.35700
H1773       H  0.92331357  0.46725489  0.17089967     0.28400
H1774       H  0.84406806  0.30333526  0.08913767     0.32600
H1775       H  0.83451978  0.47050008  0.08223835     0.35500
H1776       H  0.83489815  0.37748445  0.18556963     0.28100
H1777       H  0.91784890  0.50154009  0.16183564     0.40900
H1778       H  0.92492561  0.34353470  0.09853572     0.31000
H1779       H  0.92002463  0.31042649  0.12784957     0.38600
H1780       H  0.82282184  0.45870174  0.12075523     0.30500
H1781       H  0.89823714  0.43862748  0.07152561     0.30500
H1782       H  0.83717441  0.33801284  0.08156714     0.30800
Zr1783     Zr  0.86059278  0.85514340  0.10781268     2.17500
O1784       O  0.83701017  0.83308040  0.08868383    -0.51600
O1785       O  0.86726541  0.79592417  0.11392534    -0.74800
O1786       O  0.87064617  0.84610819  0.07721064    -0.81500
O1787       O  0.82504455  0.87464336  0.14298084    -0.83300
O1788       O  0.89714297  0.87281825  0.07354362    -0.78900
O1789       O  0.82940126  0.84885231  0.11636613    -0.90600
O1790       O  0.89037841  0.79311644  0.13341111    -0.76500
O1791       O  0.89208569  0.85299885  0.11217111    -0.86000
O1792       O  0.86509302  0.85067236  0.13913951    -0.85700
O1793       O  0.87165010  0.90701811  0.09518765    -0.72400
O1794       O  0.84750354  0.90469932  0.12064052    -0.84600
Zr1795     Zr  0.89546800  0.95057188  0.14419421     2.26400
Zr1796     Zr  0.90321753  0.90510850  0.10031701     2.06300
Zr1797     Zr  0.85274953  0.90073684  0.15193463     2.10000
Zr1798     Zr  0.89646242  0.84950314  0.14353887     1.78800
O1799       O  0.82830450  0.93832400  0.15983676    -0.93400
O1800       O  0.92580563  0.82678925  0.13642489    -0.41200
O1801       O  0.88427624  0.89914916  0.15686113    -0.77800
O1802       O  0.90855820  0.90033357  0.13172249    -0.96500
O1803       O  0.89057381  0.95500493  0.11292971    -0.89800
O1804       O  0.86392728  0.95266101  0.14013619    -0.92700
C1805       C  0.87886849  0.77950752  0.12311353     1.01100
C1806       C  0.81954504  0.85772741  0.12952280     1.14000
C1807       C  0.88423953  0.85448427  0.06778874     1.04800
O1808       O  0.92945639  0.87372908  0.09082411    -0.94800
O1809       O  0.93045715  0.93538126  0.10764335    -0.90600
O1810       O  0.92628420  0.95959873  0.13476876    -0.83700
C1811       C  0.93595733  0.95201498  0.12122879     1.11400
O1812       O  0.83832199  0.94946129  0.08397928    -0.96800
Zr1813     Zr  0.85907735  0.95609163  0.10879717     1.88900
O1814       O  0.88811881  0.00964709  0.13832858    -0.73400
O1815       O  0.90622299  0.94688716  0.07671039    -0.52700
O1816       O  0.86920321  0.98942275  0.08345510    -0.97400
O1817       O  0.82945275  0.97731281  0.11614396    -0.54600
O1818       O  0.86491180  0.01260021  0.11892829    -0.74000
C1819       C  0.87645448  0.02611372  0.12923565     0.98400
O1820       O  0.91816880  0.97479580  0.16367831    -0.62800
O1821       O  0.84603322  0.86042755  0.17554746    -0.57600
O1822       O  0.88626737  0.95519973  0.17543203    -0.94300
O1823       O  0.86067453  0.92631545  0.18009565    -0.92700
O1824       O  0.88584250  0.82071482  0.17015032    -0.93000
O1825       O  0.91789485  0.85167928  0.16790995    -0.91800
C1826       C  0.87355539  0.94482749  0.18556893     1.17200
H1827       H  0.85943527  0.83069280  0.14385322     0.33200
H1828       H  0.92115149  0.89874736  0.13426567     0.44000
H1829       H  0.85871474  0.97150101  0.14638651     0.37600
H1830       H  0.86901764  0.90855585  0.08262208     0.34000
H1831       H  0.92650668  0.80514082  0.14298132     0.25800
H1832       H  0.91584622  0.93798241  0.06901858     0.31800
H1833       H  0.86158395  0.00984373  0.08343343     0.37700
H1834       H  0.89198360  0.79859496  0.17007344     0.32100
H1835       H  0.83575202  0.87036730  0.18192928     0.31000
H1836       H  0.82100635  0.92530402  0.16840602     0.32700
H1837       H  0.82860008  0.99939966  0.11003103     0.31700
H1838       H  0.91994901  0.87605177  0.16986780     0.35700
H1839       H  0.91253896  0.99460796  0.16938729     0.28400
H1840       H  0.84101279  0.81028314  0.08514835     0.32600
H1841       H  0.83470977  0.97254300  0.08043725     0.35500
H1842       H  0.84102521  0.84040834  0.16949633     0.28100
H1843       H  0.92003037  0.95824221  0.17339948     0.40900
H1844       H  0.93498075  0.86561912  0.10202108     0.31000
H1845       H  0.92496249  0.82023625  0.12374764     0.38600
H1846       H  0.83007179  0.98296678  0.12895341     0.30500
H1847       H  0.89524118  0.94448897  0.06948370     0.30500
H1848       H  0.83718561  0.84671323  0.07762769     0.30800
Zr1849     Zr  0.14569275  0.08644443  0.10978179     2.17500
O1850       O  0.16913788  0.11183856  0.09165164    -0.51600
O1851       O  0.13884987  0.14620276  0.11449363    -0.74800
O1852       O  0.13734169  0.09213598  0.07809501    -0.81500
O1853       O  0.18005303  0.06132401  0.14569942    -0.83300
O1854       O  0.11077089  0.06614743  0.07369745    -0.78900
O1855       O  0.17717714  0.08749831  0.11888023    -0.90600
O1856       O  0.11435048  0.15071502  0.13205991    -0.76500
O1857       O  0.11412406  0.09040462  0.11291856    -0.86000
O1858       O  0.14004633  0.09281314  0.14095394    -0.85700
O1859       O  0.13432315  0.03433893  0.09773638    -0.72400
O1860       O  0.15714375  0.03671892  0.12418934    -0.84600
Zr1861     Zr  0.10760157  0.99469240  0.14617583     2.26400
Zr1862     Zr  0.10256725  0.03853105  0.10135877     2.06300
Zr1863     Zr  0.15082101  0.04262697  0.15519906     2.10000
Zr1864     Zr  0.10851060  0.09552371  0.14406281     1.78800
O1865       O  0.17423464  0.00844064  0.16865493    -0.93400
O1866       O  0.07900887  0.11755396  0.13686896    -0.41200
O1867       O  0.11919976  0.04588825  0.15874294    -0.77800
O1868       O  0.09605471  0.04492070  0.13237847    -0.96500
O1869       O  0.11378523  0.98841429  0.11527254    -0.89800
O1870       O  0.13923034  0.99084155  0.14368625    -0.92700
C1871       C  0.12648561  0.16336629  0.12214078     1.01100
C1872       C  0.18653814  0.07648951  0.13207301     1.14000
C1873       C  0.12411178  0.08341333  0.06811946     1.04800
O1874       O  0.07772033  0.07586351  0.09426114    -0.94800
O1875       O  0.07487768  0.00883148  0.10733732    -0.90600
O1876       O  0.07745482  0.98574204  0.13499841    -0.83700
C1877       C  0.06859622  0.99282867  0.12081036     1.11400
O1878       O  0.16989815  0.98758304  0.09145659    -0.96800
Zr1879     Zr  0.14539758  0.98533523  0.11277134     1.88900
O1880       O  0.11316995  0.93484037  0.14144629    -0.73400
O1881       O  0.09673750  0.99926037  0.07715351    -0.52700
O1882       O  0.13715074  0.95655982  0.08534314    -0.97400
O1883       O  0.17309471  0.96005737  0.12357928    -0.54600
O1884       O  0.13661357  0.92982827  0.12249367    -0.74000
C1885       C  0.12454777  0.91744235  0.13260391     0.98400
O1886       O  0.08276010  0.97912797  0.16551093    -0.62800
O1887       O  0.15602343  0.08741569  0.17676045    -0.57600
O1888       O  0.11629958  0.98604237  0.17723272    -0.94300
O1889       O  0.14169624  0.01540215  0.18274717    -0.92700
O1890       O  0.11927131  0.12747329  0.16955495    -0.93000
O1891       O  0.08743393  0.09421346  0.16871122    -0.91800
C1892       C  0.12886920  0.99601207  0.18760303     1.17200
H1893       H  0.14583728  0.11271780  0.14557372     0.33200
H1894       H  0.08336098  0.04700668  0.13424329     0.44000
H1895       H  0.14379181  0.97190863  0.15041919     0.37600
H1896       H  0.13754222  0.03147490  0.08540750     0.34000
H1897       H  0.07872370  0.14036213  0.14219519     0.25800
H1898       H  0.08817097  0.01117613  0.06929676     0.31800
H1899       H  0.14217787  0.93356799  0.08655962     0.37700
H1900       H  0.11122045  0.14723720  0.17028621     0.32100
H1901       H  0.15750871  0.07566713  0.18831014     0.31000
H1902       H  0.17878177  0.02219158  0.17866521     0.32700
H1903       H  0.17119067  0.93537884  0.12310496     0.31700
H1904       H  0.08374626  0.07029606  0.16959234     0.35700
H1905       H  0.08628529  0.95782298  0.17145908     0.28400
H1906       H  0.16364440  0.13183010  0.08592032     0.32600
H1907       H  0.17268639  0.96383246  0.08850462     0.35500
H1908       H  0.16807127  0.09615515  0.17396218     0.28100
H1909       H  0.08249154  0.99628401  0.17506471     0.40900
H1910       H  0.08326105  0.09809977  0.09195176     0.31000
H1911       H  0.07932791  0.12161474  0.12387379     0.38600
H1912       H  0.17351307  0.96538241  0.13643543     0.30500
H1913       H  0.10797639  0.99848453  0.07025172     0.30500
H1914       H  0.17138065  0.09579107  0.08181976     0.30800
Zr1915     Zr  0.14588980  0.59066071  0.11256039     2.17500
O1916       O  0.16803773  0.62348608  0.09618830    -0.51600
O1917       O  0.13947086  0.64889461  0.12132204    -0.74800
O1918       O  0.13759465  0.59909599  0.08112061    -0.81500
O1919       O  0.18219221  0.55608085  0.14448797    -0.83300
O1920       O  0.11046425  0.57540885  0.07604878    -0.78900
O1921       O  0.17767990  0.58862561  0.11990228    -0.90600
O1922       O  0.11695683  0.65026262  0.14137213    -0.76500
O1923       O  0.11452796  0.59449208  0.11710796    -0.86000
O1924       O  0.14166212  0.59032814  0.14408134    -0.85700
O1925       O  0.13393199  0.54103574  0.09836829    -0.72400
O1926       O  0.15778611  0.53831072  0.12343595    -0.84600
Zr1927     Zr  0.10882810  0.49207603  0.14503133     2.26400
Zr1928     Zr  0.10238400  0.54524429  0.10311787     2.06300
Zr1929     Zr  0.15304732  0.53752372  0.15477977     2.10000
Zr1930     Zr  0.11026590  0.59284513  0.14858628     1.78800
O1931       O  0.17561934  0.49682431  0.16399228    -0.93400
O1932       O  0.08135010  0.61833302  0.14217000    -0.41200
O1933       O  0.12152101  0.54046831  0.15955487    -0.77800
O1934       O  0.09702433  0.54521636  0.13462147    -0.96500
O1935       O  0.11384232  0.49246706  0.11375205    -0.89800
O1936       O  0.14039854  0.48819795  0.14130207    -0.92700
C1937       C  0.12845351  0.66467698  0.13141628     1.01100
C1938       C  0.18779898  0.57459539  0.13160666     1.14000
C1939       C  0.12441101  0.59146879  0.07086918     1.04800
O1940       O  0.07910031  0.58537417  0.09516845    -0.94800
O1941       O  0.07401312  0.51824826  0.10968187    -0.90600
O1942       O  0.07776755  0.48727053  0.13490344    -0.83700
C1943       C  0.06807405  0.49910116  0.12214749     1.11400
O1944       O  0.16832036  0.49617292  0.08733895    -0.96800
Zr1945     Zr  0.14535063  0.48935035  0.11002340     1.88900
O1946       O  0.11508882  0.43324954  0.13684286    -0.73400
O1947       O  0.09602022  0.50699655  0.07861965    -0.52700
O1948       O  0.13632568  0.46522791  0.08159633    -0.97400
O1949       O  0.17349536  0.46356038  0.11912103    -0.54600
O1950       O  0.13682689  0.43202285  0.11597342    -0.74000
C1951       C  0.12551981  0.41741623  0.12612446     0.98400
O1952       O  0.08555177  0.46594710  0.16311123    -0.62800
O1953       O  0.16212613  0.57706120  0.17789275    -0.57600
O1954       O  0.11707544  0.48472658  0.17646222    -0.94300
O1955       O  0.14329272  0.51133259  0.18229599    -0.92700
O1956       O  0.12099903  0.61904666  0.17587308    -0.93000
O1957       O  0.08946711  0.58574236  0.17318771    -0.91800
C1958       C  0.12968001  0.49389968  0.18705556     1.17200
H1959       H  0.14770136  0.60911198  0.14960303     0.33200
H1960       H  0.08450832  0.54760238  0.13731303     0.44000
H1961       H  0.14509879  0.46799450  0.14678570     0.37600
H1962       H  0.13686276  0.53955389  0.08590879     0.34000
H1963       H  0.08112965  0.63930509  0.14929500     0.25800
H1964       H  0.08664683  0.51858449  0.07158942     0.31800
H1965       H  0.14206059  0.44273832  0.08117652     0.37700
H1966       H  0.11380339  0.63986787  0.17711861     0.32100
H1967       H  0.16948354  0.56349338  0.18620350     0.31000
H1968       H  0.18166419  0.50744808  0.17427385     0.32700
H1969       H  0.17030483  0.44703928  0.12848348     0.31700
H1970       H  0.08762563  0.56106956  0.17405000     0.35700
H1971       H  0.09113395  0.44616888  0.16895589     0.28400
H1972       H  0.16139449  0.64155261  0.08993707     0.32600
H1973       H  0.17219198  0.47304819  0.08422718     0.35500
H1974       H  0.17075005  0.59244121  0.17208949     0.28100
H1975       H  0.08303946  0.48203752  0.17285780     0.40900
H1976       H  0.08464909  0.60784536  0.09661849     0.31000
H1977       H  0.08225440  0.62619467  0.12968959     0.38600
H1978       H  0.17995033  0.48161198  0.12553892     0.30500
H1979       H  0.10677166  0.50787515  0.07098795     0.30500
H1980       H  0.17243146  0.60852746  0.08662139     0.30800
Zr1981     Zr  0.14751844  0.34172569  0.39445898     2.17500
O1982       O  0.17074404  0.31427047  0.41211470    -0.51600
O1983       O  0.14263124  0.28184216  0.38759787    -0.74800
O1984       O  0.13950450  0.33361905  0.42587212    -0.81500
O1985       O  0.18168681  0.37530970  0.36028295    -0.83300
O1986       O  0.11169532  0.35462118  0.43071082    -0.78900
O1987       O  0.17916123  0.34777381  0.38672276    -0.90600
O1988       O  0.11748217  0.27742574  0.37090099    -0.76500
O1989       O  0.11615479  0.33486430  0.39084165    -0.86000
O1990       O  0.14235627  0.33820547  0.36310378    -0.85700
O1991       O  0.13447968  0.39131353  0.40778525    -0.72400
O1992       O  0.15752266  0.39400844  0.38184552    -0.84600
Zr1993     Zr  0.10711116  0.43360993  0.36021111     2.26400
Zr1994     Zr  0.10296966  0.38412027  0.40368575     2.06300
Zr1995     Zr  0.15186447  0.39093395  0.35067590     2.10000
Zr1996     Zr  0.11089720  0.33275756  0.35957831     1.78800
O1997       O  0.17423577  0.43024330  0.33961794    -0.93400
O1998       O  0.08159036  0.30895414  0.36583004    -0.41200
O1999       O  0.12037889  0.38484236  0.34666326    -0.77800
O2000       O  0.09683601  0.38086618  0.37238644    -0.96500
O2001       O  0.11279408  0.43668751  0.39138910    -0.89800
O2002       O  0.13856056  0.44040415  0.36326278    -0.92700
C2003       C  0.13025277  0.26463927  0.37996025     1.01100
C2004       C  0.18843393  0.36045164  0.37393950     1.14000
C2005       C  0.12597354  0.33963468  0.43589267     1.04800
O2006       O  0.07997279  0.34355668  0.41174745    -0.94800
O2007       O  0.07425480  0.40990953  0.39760185    -0.90600
O2008       O  0.07691777  0.44027728  0.37201389    -0.83700
C2009       C  0.06789574  0.42895597  0.38529664     1.11400
O2010       O  0.17010345  0.44115038  0.41411495    -0.96800
Zr2011     Zr  0.14419934  0.44292980  0.39443606     1.88900
O2012       O  0.11237804  0.49364623  0.36580015    -0.73400
O2013       O  0.09627176  0.42247192  0.42805008    -0.52700
O2014       O  0.13740245  0.46467813  0.42397714    -0.97400
O2015       O  0.16934939  0.47532716  0.38291182    -0.54600
O2016       O  0.13176995  0.49798526  0.38889149    -0.74000
C2017       C  0.12116176  0.51083869  0.37735825     0.98400
O2018       O  0.08107873  0.45150750  0.34310877    -0.62800
O2019       O  0.15938828  0.34908715  0.32819806    -0.57600
O2020       O  0.11436968  0.44046314  0.32844190    -0.94300
O2021       O  0.14144713  0.41691199  0.32330427    -0.92700
O2022       O  0.12260065  0.30275524  0.33385328    -0.93000
O2023       O  0.09069203  0.33320905  0.33416754    -0.91800
C2024       C  0.12740110  0.43268944  0.31805659     1.17200
H2025       H  0.14874510  0.31943154  0.35796905     0.33200
H2026       H  0.08424276  0.37794257  0.37017886     0.44000
H2027       H  0.14261732  0.46037955  0.35710640     0.37600
H2028       H  0.13752423  0.39357111  0.42020674     0.34000
H2029       H  0.08257050  0.28484481  0.36258010     0.25800
H2030       H  0.08774555  0.40994015  0.43563645     0.31800
H2031       H  0.14015846  0.48906543  0.42336694     0.37700
H2032       H  0.11706719  0.28011761  0.33444683     0.32100
H2033       H  0.14890157  0.34857262  0.32017021     0.31000
H2034       H  0.18045773  0.41793987  0.32999534     0.32700
H2035       H  0.16417113  0.49183066  0.37445080     0.31700
H2036       H  0.08702437  0.35709715  0.33292576     0.35700
H2037       H  0.08358502  0.47507703  0.33957371     0.28400
H2038       H  0.16512830  0.29417843  0.41758788     0.32600
H2039       H  0.17260610  0.46489222  0.41731551     0.35500
H2040       H  0.16891705  0.35974389  0.32101847     0.28100
H2041       H  0.08114640  0.43833172  0.33193527     0.40900
H2042       H  0.08612503  0.32145300  0.41208363     0.31000
H2043       H  0.08069015  0.30891302  0.37896848     0.38600
H2044       H  0.17597263  0.45923546  0.37532204     0.30500
H2045       H  0.10739358  0.42341142  0.43516314     0.30500
H2046       H  0.17333408  0.32965064  0.42215721     0.30800
Zr2047     Zr  0.14608623  0.83794591  0.39454812     2.17500
O2048       O  0.16764287  0.80469366  0.41157710    -0.51600
O2049       O  0.13807930  0.77924500  0.38808770    -0.74800
O2050       O  0.13817370  0.83148771  0.42590584    -0.81500
O2051       O  0.18170445  0.86619846  0.36100273    -0.83300
O2052       O  0.11139910  0.85668596  0.43082752    -0.78900
O2053       O  0.17801602  0.83896887  0.38738483    -0.90600
O2054       O  0.11283306  0.77863130  0.37144189    -0.76500
O2055       O  0.11447508  0.83646290  0.39110421    -0.86000
O2056       O  0.14084671  0.83484798  0.36322905    -0.85700
O2057       O  0.13540925  0.88963643  0.40780559    -0.72400
O2058       O  0.15841109  0.88825115  0.38186416    -0.84600
Zr2059     Zr  0.10986675  0.93554092  0.36000849     2.26400
Zr2060     Zr  0.10365121  0.88795282  0.40385879     2.06300
Zr2061     Zr  0.15275869  0.88573060  0.35071489     2.10000
Zr2062     Zr  0.10922594  0.83463356  0.35982085     1.78800
O2063       O  0.17716876  0.92092924  0.34014917    -0.93400
O2064       O  0.07875288  0.81655580  0.36578787    -0.41200
O2065       O  0.12109895  0.88472833  0.34674021    -0.77800
O2066       O  0.09737479  0.88488092  0.37254253    -0.96500
O2067       O  0.11572354  0.93843914  0.39116942    -0.89800
O2068       O  0.14154037  0.93721242  0.36303304    -0.92700
C2069       C  0.12489760  0.76398410  0.38066650     1.01100
C2070       C  0.18780102  0.85047648  0.37468535     1.14000
C2071       C  0.12494557  0.83923137  0.43594879     1.04800
O2072       O  0.07845383  0.85405381  0.41369313    -0.94800
O2073       O  0.07597762  0.91781624  0.39720523    -0.90600
O2074       O  0.07994367  0.94757528  0.37155931    -0.83700
C2075       C  0.07040276  0.93766263  0.38482159     1.11400
O2076       O  0.17090295  0.93452502  0.41643191    -0.96800
Zr2077     Zr  0.14731584  0.93931914  0.39417927     1.88900
O2078       O  0.11736287  0.99460590  0.36584617    -0.73400
O2079       O  0.10008260  0.92896980  0.42765731    -0.52700
O2080       O  0.13877617  0.96673384  0.42188634    -0.97400
O2081       O  0.17582668  0.96230473  0.38431230    -0.54600
O2082       O  0.14003446  0.99628359  0.38579031    -0.74000
C2083       C  0.12866601  0.01064393  0.37554125     0.98400
O2084       O  0.08539529  0.95375968  0.34074679    -0.62800
O2085       O  0.15840686  0.84310648  0.32808428    -0.57600
O2086       O  0.11842548  0.94237533  0.32862732    -0.94300
O2087       O  0.14420350  0.91393021  0.32331148    -0.92700
O2088       O  0.11972071  0.80173757  0.33456741    -0.93000
O2089       O  0.08940927  0.83810758  0.33417717    -0.91800
C2090       C  0.13114576  0.93266253  0.31831260     1.17200
H2091       H  0.14634182  0.81501348  0.35819357     0.33200
H2092       H  0.08469837  0.88392731  0.37033718     0.44000
H2093       H  0.14656422  0.95634868  0.35683660     0.37600
H2094       H  0.13861695  0.89154514  0.42020014     0.34000
H2095       H  0.07822783  0.79289083  0.36165806     0.25800
H2096       H  0.09007684  0.92014744  0.43488661     0.31800
H2097       H  0.14338252  0.99005498  0.42091745     0.37700
H2098       H  0.11170115  0.78192351  0.33411552     0.32100
H2099       H  0.16342737  0.85576359  0.31788426     0.31000
H2100       H  0.18400740  0.90633706  0.33193091     0.32700
H2101       H  0.17280335  0.97884916  0.37489098     0.31700
H2102       H  0.08543268  0.86192391  0.33390380     0.35700
H2103       H  0.08964844  0.97432689  0.33457909     0.28400
H2104       H  0.16085273  0.78570793  0.41681521     0.32600
H2105       H  0.17418909  0.95796841  0.41953683     0.35500
H2106       H  0.16858327  0.82979412  0.33274354     0.28100
H2107       H  0.08439080  0.93638753  0.33134946     0.40900
H2108       H  0.08222547  0.83042276  0.41172895     0.31000
H2109       H  0.07802714  0.81500853  0.37891706     0.38600
H2110       H  0.18165446  0.94352041  0.37788360     0.30500
H2111       H  0.11074493  0.92592962  0.43529409     0.30500
H2112       H  0.17120644  0.81883334  0.42183599     0.30800
C2113       C  0.11915815  0.54801883  0.37786661    -0.12200
C2114       C  0.11831145  0.56810366  0.36232939     0.03300
C2115       C  0.11844030  0.60333582  0.36374274    -0.12700
C2116       C  0.11940669  0.61902615  0.38041859     0.18100
C2117       C  0.11961486  0.59918508  0.39591342    -0.09800
C2118       C  0.11957115  0.56405996  0.39455909    -0.02700
H2119       H  0.11832816  0.61859542  0.35176090     0.04700
C2120       C  0.12105163  0.65605308  0.38137978     0.20100
H2121       H  0.12013341  0.54916579  0.40665769     0.09800
C2122       C  0.10579619  0.67565047  0.38428630    -0.16100
C2123       C  0.10692568  0.71082769  0.38489895     0.02800
C2124       C  0.12356074  0.72694218  0.38232094    -0.11400
C2125       C  0.13891400  0.70712611  0.38005423    -0.01500
C2126       C  0.13774915  0.67192045  0.37959409    -0.06600
H2127       H  0.09298234  0.66350192  0.38612952     0.05800
H2128       H  0.15177674  0.71905283  0.37815861     0.09200
Br2129     Br  0.12060466  0.61906442  0.41914769    -0.06300
Br2130     Br  0.11870618  0.54931011  0.33884729    -0.03300
Br2131     Br  0.08548202  0.73533787  0.39028499    -0.00400
Br2132     Br  0.15925812  0.64635882  0.37653859    -0.04800
C2133       C  0.12867779  0.04819541  0.37554622    -0.12200
C2134       C  0.12212659  0.06799864  0.36124237     0.03300
C2135       C  0.12268957  0.10332021  0.36232063    -0.12700
C2136       C  0.12989530  0.11940610  0.37730300     0.18100
C2137       C  0.13648912  0.09990157  0.39145130    -0.09800
C2138       C  0.13582596  0.06480098  0.39052507    -0.02700
H2139       H  0.11768652  0.11834316  0.35132872     0.04700
C2140       C  0.13030875  0.15659106  0.37819611     0.20100
H2141       H  0.14087529  0.05046053  0.40174274     0.09800
C2142       C  0.11505435  0.17386875  0.38387313    -0.16100
C2143       C  0.11509394  0.20901357  0.38532633     0.02800
C2144       C  0.13064271  0.22747272  0.38108261    -0.11400
C2145       C  0.14606371  0.21001922  0.37584822    -0.01500
C2146       C  0.14592938  0.17481822  0.37424592    -0.06600
H2147       H  0.10309885  0.15991652  0.38725749     0.05800
H2148       H  0.15800029  0.22386974  0.37229985     0.09200
Br2149     Br  0.14642075  0.12027581  0.41239130    -0.06300
Br2150     Br  0.11320529  0.04887449  0.33950971    -0.03300
Br2151     Br  0.09373324  0.23042674  0.39377883    -0.00400
Br2152     Br  0.16708130  0.15257682  0.36599037    -0.04800
C2153       C  0.12629004  0.44099838  0.29857873    -0.12200
C2154       C  0.11417355  0.46478155  0.29120541     0.03300
C2155       C  0.11407682  0.47108346  0.27282086    -0.12700
C2156       C  0.12580667  0.45432285  0.26132057     0.18100
C2157       C  0.13790956  0.43080368  0.26849957    -0.09800
C2158       C  0.13798291  0.42421254  0.28681504    -0.02700
H2159       H  0.10493252  0.48970469  0.26744713     0.04700
C2160       C  0.12622901  0.46398877  0.24220149     0.20100
H2161       H  0.14745285  0.40585525  0.29183993     0.09800
C2162       C  0.13151201  0.49680064  0.23765509    -0.16100
C2163       C  0.13242955  0.50712197  0.21985787     0.02800
C2164       C  0.12829149  0.48419024  0.20608410    -0.11400
C2165       C  0.12240189  0.45167752  0.21066515    -0.01500
C2166       C  0.12122189  0.44156547  0.22853057    -0.06600
H2167       H  0.13486771  0.51458983  0.24805973     0.05800
H2168       H  0.11873574  0.43402073  0.20030484     0.09200
Br2169     Br  0.15535439  0.40838685  0.25403230    -0.06300
Br2170     Br  0.09797407  0.49131902  0.30503458    -0.03300
Br2171     Br  0.13796570  0.55364549  0.21537754    -0.00400
Br2172     Br  0.11192525  0.39752589  0.23358206    -0.04800
C2173       C  0.12433524  0.88052374  0.13433142    -0.12200
C2174       C  0.10883971  0.86129342  0.13118375     0.03300
C2175       C  0.10984652  0.82604134  0.13157703    -0.12700
C2176       C  0.12614707  0.80977509  0.13491966     0.18100
C2177       C  0.14152774  0.82894081  0.13821910    -0.09800
C2178       C  0.14053758  0.86404455  0.13792388    -0.02700
H2179       H  0.09801493  0.81125522  0.12881133     0.04700
C2180       C  0.12710512  0.77277807  0.13422292     0.20100
H2181       H  0.15254750  0.87859418  0.14026002     0.09800
C2182       C  0.13196450  0.75714516  0.11825071    -0.16100
C2183       C  0.13291208  0.72200662  0.11703216     0.02800
C2184       C  0.12889909  0.70196109  0.13206674    -0.11400
C2185       C  0.12430312  0.71799440  0.14814592    -0.01500
C2186       C  0.12346467  0.75308770  0.14930971    -0.06600
H2187       H  0.13483876  0.77240779  0.10662410     0.05800
H2188       H  0.12134938  0.70316823  0.15990859     0.09200
Br2189     Br  0.16420023  0.80808690  0.14274299    -0.06300
Br2190     Br  0.08654001  0.88171281  0.12459759    -0.03300
Br2191     Br  0.13850968  0.70332519  0.09417601    -0.00400
Br2192     Br  0.11750613  0.77325515  0.17173195    -0.04800
C2193       C  0.12465965  0.37989288  0.12485831    -0.12200
C2194       C  0.11848363  0.35891362  0.13882492     0.03300
C2195       C  0.11886845  0.32375166  0.13687777    -0.12700
C2196       C  0.12538079  0.30877182  0.12129809     0.18100
C2197       C  0.13119958  0.32939081  0.10725164    -0.09800
C2198       C  0.13083373  0.36445573  0.10910308    -0.02700
H2199       H  0.11435321  0.30790574  0.14773846     0.04700
C2200       C  0.12609647  0.27156921  0.12007191     0.20100
H2201       H  0.13543037  0.37971528  0.09804989     0.09800
C2202       C  0.11030723  0.25360432  0.11700150    -0.16100
C2203       C  0.11028538  0.21831499  0.11695542     0.02800
C2204       C  0.12633810  0.20039946  0.11990683    -0.11400
C2205       C  0.14224275  0.21847623  0.12233138    -0.01500
C2206       C  0.14217201  0.25377639  0.12268775    -0.06600
H2207       H  0.09790598  0.26712021  0.11488695     0.05800
H2208       H  0.15461155  0.20510723  0.12485494     0.09200
Br2209     Br  0.13959961  0.31073672  0.08524155    -0.06300
Br2210     Br  0.11032721  0.37594325  0.16128350    -0.03300
Br2211     Br  0.08801355  0.19597379  0.11243009    -0.00400
Br2212     Br  0.16405327  0.27656150  0.12815239    -0.04800
C2213       C  0.13034009  0.94255234  0.29919472    -0.12200
C2214       C  0.14584296  0.95018903  0.28925252     0.03300
C2215       C  0.14449545  0.95801220  0.27113063    -0.12700
C2216       C  0.12793514  0.95860985  0.26242061     0.18100
C2217       C  0.11246288  0.95034724  0.27215973    -0.09800
C2218       C  0.11373880  0.94281656  0.29039307    -0.02700
H2219       H  0.15650182  0.96408050  0.26377022     0.04700
C2220       C  0.12730400  0.96858999  0.24331398     0.20100
H2221       H  0.10171069  0.93647446  0.29764768     0.09800
C2222       C  0.12235242  0.94493179  0.23032686    -0.16100
C2223       C  0.12286365  0.95308447  0.21212760     0.02800
C2224       C  0.12830157  0.98561023  0.20662412    -0.11400
C2225       C  0.13332584  0.00910861  0.21967163    -0.01500
C2226       C  0.13287186  0.00091318  0.23779330    -0.06600
H2227       H  0.11854539  0.91969625  0.23434767     0.05800
H2228       H  0.13747656  0.03422082  0.21576758     0.09200
Br2229     Br  0.08929618  0.94936201  0.26126710    -0.06300
Br2230     Br  0.16922890  0.95231501  0.29960841    -0.03300
Br2231     Br  0.11759089  0.91785610  0.19543758    -0.00400
Br2232     Br  0.13975795  0.03506939  0.25451938    -0.04800
C2233       C  0.95505968  0.96080778  0.12182014    -0.12200
C2234       C  0.96593210  0.95001028  0.13606920     0.03300
C2235       C  0.98433887  0.95541367  0.13547868    -0.12700
C2236       C  0.99223521  0.97270993  0.12120237     0.18100
C2237       C  0.98127502  0.98426256  0.10713346    -0.09800
C2238       C  0.96289895  0.97770526  0.10739618    -0.02700
H2239       H  0.99258816  0.94574887  0.14619472     0.04700
C2240       C  0.01190198  0.97759347  0.12116394     0.20100
H2241       H  0.95466101  0.98610890  0.09637937     0.09800
C2242       C  0.02210992  0.96537171  0.10684774    -0.16100
C2243       C  0.04066792  0.96965921  0.10642974     0.02800
C2244       C  0.04937766  0.98513826  0.12086669    -0.11400
C2245       C  0.03928171  0.99637030  0.13539057    -0.01500
C2246       C  0.02073233  0.99324221  0.13554599    -0.06600
H2247       H  0.01560064  0.95255725  0.09590613     0.05800
H2248       H  0.04581525  0.00899553  0.14639492     0.09200
Br2249     Br  0.99052282  0.01024109  0.08763157    -0.06300
Br2250     Br  0.95660084  0.92572296  0.15614451    -0.03300
Br2251     Br  0.05354368  0.95317460  0.08617732    -0.00400
Br2252     Br  0.00820259  0.01292752  0.15524519    -0.04800
C2253       C  0.87759201  0.56334013  0.12839833    -0.12200
C2254       C  0.88147961  0.58310765  0.14353986     0.03300
C2255       C  0.88140826  0.61835305  0.14217744    -0.12700
C2256       C  0.87733227  0.63433172  0.12600237     0.18100
C2257       C  0.87357849  0.61478719  0.11090682    -0.09800
C2258       C  0.87371644  0.57969206  0.11218508    -0.02700
H2259       H  0.88430321  0.63341224  0.15384201     0.04700
C2260       C  0.87745759  0.67144040  0.12495221     0.20100
H2261       H  0.87085799  0.56509839  0.10034813     0.09800
C2262       C  0.89385981  0.68812317  0.12396293    -0.16100
C2263       C  0.89459179  0.72321872  0.12261080     0.02800
C2264       C  0.87864303  0.74229701  0.12246047    -0.11400
C2265       C  0.86219089  0.72539219  0.12310450    -0.01500
C2266       C  0.86151605  0.69021438  0.12442454    -0.06600
H2267       H  0.90614955  0.67369005  0.12401013     0.05800
H2268       H  0.84983772  0.73962186  0.12315283     0.09200
Br2269     Br  0.86838419  0.63501844  0.08823460    -0.06300
Br2270     Br  0.88582879  0.56385567  0.16661792    -0.03300
Br2271     Br  0.91773800  0.74322349  0.11990179    -0.00400
Br2272     Br  0.83862127  0.66884602  0.12605921    -0.04800
C2273       C  0.87615563  0.24220699  0.12940919    -0.12200
C2274       C  0.87420010  0.22357786  0.14530780     0.03300
C2275       C  0.87465942  0.18840947  0.14484206    -0.12700
C2276       C  0.87729708  0.17134008  0.12877640     0.18100
C2277       C  0.87924917  0.18979671  0.11287551    -0.09800
C2278       C  0.87852474  0.22504453  0.11326149    -0.02700
H2279       H  0.87295600  0.17425287  0.15707578     0.04700
C2280       C  0.87735034  0.13421291  0.12894251     0.20100
H2281       H  0.88019015  0.23910058  0.10098974     0.09800
C2282       C  0.86105675  0.11719643  0.13031529    -0.16100
C2283       C  0.86050747  0.08201687  0.13095638     0.02800
C2284       C  0.87653220  0.06327034  0.13022686    -0.11400
C2285       C  0.89288412  0.08048607  0.12935132    -0.01500
C2286       C  0.89337339  0.11573275  0.12864951    -0.06600
H2287       H  0.84871432  0.13140813  0.13097688     0.05800
H2288       H  0.90528973  0.06647536  0.12876605     0.09200
Br2289     Br  0.88292781  0.16788515  0.09044244    -0.06300
Br2290     Br  0.87005397  0.24469153  0.16790630    -0.03300
Br2291     Br  0.83756758  0.06125203  0.13390316    -0.00400
Br2292     Br  0.91612712  0.13769966  0.12732256    -0.04800
C2293       C  0.95484024  0.46104413  0.12428983    -0.12200
C2294       C  0.96436884  0.46797913  0.10852569     0.03300
C2295       C  0.98288126  0.47186047  0.10911152    -0.12700
C2296       C  0.99220853  0.47061655  0.12530617     0.18100
C2297       C  0.98252655  0.46675123  0.14125650    -0.09800
C2298       C  0.96406590  0.46125909  0.14061790    -0.02700
H2299       H  0.99003688  0.47671422  0.09684811     0.04700
C2300       C  0.01169030  0.47712973  0.12507917     0.20100
H2301       H  0.95692905  0.45697166  0.15294742     0.09800
C2302       C  0.01757321  0.50790362  0.11813122    -0.16100
C2303       C  0.03571077  0.51518726  0.11659493     0.02800
C2304       C  0.04863772  0.49147525  0.12241189    -0.11400
C2305       C  0.04269565  0.46047439  0.12938457    -0.01500
C2306       C  0.02442593  0.45293194  0.13044345    -0.06600
H2307       H  0.00788375  0.52652029  0.11380010     0.05800
H2308       H  0.05230927  0.44173673  0.13371132     0.09200
Br2309     Br  0.99356120  0.47132779  0.16419073    -0.06300
Br2310     Br  0.95274284  0.47575860  0.08609872    -0.03300
Br2311     Br  0.04132592  0.55884219  0.10712453    -0.00400
Br2312     Br  0.01764569  0.40860882  0.13816240    -0.04800
C2313       C  0.95642748  0.48036878  0.38948674    -0.12200
C2314       C  0.96819569  0.48989157  0.40347835     0.03300
C2315       C  0.98631260  0.48141559  0.40252704    -0.12700
C2316       C  0.99306121  0.46311970  0.38813220     0.18100
C2317       C  0.98137584  0.45213375  0.37473120    -0.09800
C2318       C  0.96334581  0.46085541  0.37542938    -0.02700
H2319       H  0.99525349  0.48920489  0.41309531     0.04700
C2320       C  0.01226983  0.45498612  0.38752119     0.20100
H2321       H  0.95480425  0.45272249  0.36462586     0.09800
C2322       C  0.01774013  0.42194085  0.39115175    -0.16100
C2323       C  0.03575163  0.41300011  0.39039617     0.02800
C2324       C  0.04873425  0.43758492  0.38619394    -0.11400
C2325       C  0.04318239  0.47065684  0.38235513    -0.01500
C2326       C  0.02509830  0.47949500  0.38305989    -0.06600
H2327       H  0.00788076  0.40287730  0.39431021     0.05800
H2328       H  0.05294244  0.48970329  0.37888828     0.09200
Br2329     Br  0.98951334  0.42603153  0.35486563    -0.06300
Br2330     Br  0.96109599  0.51442422  0.42436758    -0.03300
Br2331     Br  0.04146308  0.36621986  0.39373261    -0.00400
Br2332     Br  0.01843789  0.52496925  0.37733974    -0.04800
C2333       C  0.88329170  0.49753572  0.29871182    -0.12200
C2334       C  0.88053738  0.52058624  0.28462416     0.03300
C2335       C  0.87945205  0.50899666  0.26709357    -0.12700
C2336       C  0.88137511  0.47465433  0.26309681     0.18100
C2337       C  0.88553371  0.45192950  0.27699516    -0.09800
C2338       C  0.88635327  0.46344730  0.29461906    -0.02700
H2339       H  0.87708978  0.52695424  0.25645355     0.04700
C2340       C  0.87920032  0.46369191  0.24430450     0.20100
H2341       H  0.88885835  0.44547515  0.30521814     0.09800
C2342       C  0.89386054  0.45042253  0.23506128    -0.16100
C2343       C  0.89260566  0.44256433  0.21692770     0.02800
C2344       C  0.87651054  0.44850360  0.20760051    -0.11400
C2345       C  0.86169114  0.46072010  0.21698073    -0.01500
C2346       C  0.86292565  0.46840587  0.23511852    -0.06600
H2347       H  0.90642020  0.44655578  0.24193298     0.05800
H2348       H  0.84916423  0.46491554  0.21009434     0.09200
Br2349     Br  0.88950199  0.40480884  0.27283553    -0.06300
Br2350     Br  0.87941439  0.56843088  0.28829838    -0.03300
Br2351     Br  0.91298675  0.42204351  0.20588386    -0.00400
Br2352     Br  0.84187833  0.48492740  0.24673281    -0.04800
C2353       C  0.88670566  0.71036361  0.38404745    -0.12200
C2354       C  0.87146262  0.73141766  0.38396153     0.03300
C2355       C  0.87350423  0.76650024  0.38273793    -0.12700
C2356       C  0.89049596  0.78127702  0.38184143     0.18100
C2357       C  0.90568436  0.76055298  0.38278397    -0.09800
C2358       C  0.90371150  0.72553984  0.38377370    -0.02700
H2359       H  0.86174350  0.78239533  0.38221008     0.04700
C2360       C  0.89199208  0.81829176  0.37963269     0.20100
H2361       H  0.91561868  0.71001193  0.38399526     0.09800
C2362       C  0.89722777  0.83819641  0.39412701    -0.16100
C2363       C  0.89726282  0.87342769  0.39282067     0.02800
C2364       C  0.89171560  0.88925130  0.37691650    -0.11400
C2365       C  0.88750043  0.86930595  0.36209921    -0.01500
C2366       C  0.88764306  0.83404230  0.36335919    -0.06600
H2367       H  0.90105994  0.82629031  0.40655313     0.05800
H2368       H  0.88348921  0.88116039  0.34971405     0.09200
Br2369     Br  0.92937591  0.77878212  0.38183226    -0.06300
Br2370     Br  0.84753062  0.71421749  0.38442058    -0.03300
Br2371     Br  0.90567955  0.89895852  0.41281016    -0.00400
Br2372     Br  0.88179540  0.80824157  0.34258913    -0.04800
C2373       C  0.88050154  0.38851343  0.37122265    -0.12200
C2374       C  0.89628444  0.36886314  0.37080808     0.03300
C2375       C  0.89517424  0.33357753  0.37143366    -0.12700
C2376       C  0.87859806  0.31732429  0.37241367     0.18100
C2377       C  0.86289844  0.33662747  0.37240775    -0.09800
C2378       C  0.86391820  0.37182799  0.37189395    -0.02700
H2379       H  0.90731621  0.31871111  0.37144945     0.04700
C2380       C  0.87788945  0.28019448  0.37375623     0.20100
H2381       H  0.85163412  0.38625463  0.37209955     0.09800
C2382       C  0.87625623  0.26489986  0.39055374    -0.16100
C2383       C  0.87601105  0.22967742  0.39230211     0.02800
C2384       C  0.87728693  0.20931813  0.37699486    -0.11400
C2385       C  0.87858112  0.22490338  0.36019894    -0.01500
C2386       C  0.87889967  0.25993396  0.35849305    -0.06600
H2387       H  0.87554132  0.28045633  0.40236514     0.05800
H2388       H  0.87952828  0.20966907  0.34827891     0.09200
Br2389     Br  0.83983002  0.31567777  0.37309253    -0.06300
Br2390     Br  0.91975884  0.38827701  0.37071269    -0.03300
Br2391     Br  0.87553156  0.21101004  0.41586614    -0.00400
Br2392     Br  0.88078765  0.27895041  0.33506388    -0.04800
C2393       C  0.95914545  0.99244616  0.38492722    -0.12200
C2394       C  0.96806291  0.98533810  0.40111641     0.03300
C2395       C  0.98644048  0.97875832  0.40108678    -0.12700
C2396       C  0.99628815  0.97951077  0.38521937     0.18100
C2397       C  0.98738553  0.98615583  0.36907260    -0.09800
C2398       C  0.96902202  0.99241616  0.36903287    -0.02700
H2399       H  0.99309937  0.97280559  0.41351646     0.04700
C2400       C  0.01542478  0.97005502  0.38561670     0.20100
H2401       H  0.96249948  0.99795576  0.35648121     0.09800
C2402       C  0.01986079  0.93649537  0.38935649    -0.16100
C2403       C  0.03760776  0.92565944  0.38924375     0.02800
C2404       C  0.05148442  0.94873401  0.38550470    -0.11400
C2405       C  0.04703004  0.98252181  0.38185073    -0.01500
C2406       C  0.02917693  0.99335523  0.38205732    -0.06600
H2407       H  0.00936243  0.91836455  0.39195023     0.05800
H2408       H  0.05747658  0.00060267  0.37900007     0.09200
Br2409     Br  0.99955948  0.98606514  0.34662834    -0.06300
Br2410     Br  0.95591137  0.98254978  0.42356695    -0.03300
Br2411     Br  0.04169554  0.87833584  0.39272551    -0.00400
Br2412     Br  0.02421744  0.04020375  0.37787092    -0.04800
C2413       C  0.87430655  0.95389613  0.20490331    -0.12200
C2414       C  0.85961702  0.94979953  0.21667840     0.03300
C2415       C  0.86152229  0.95741516  0.23479157    -0.12700
C2416       C  0.87767355  0.96951795  0.24163175     0.18100
C2417       C  0.89216826  0.97421251  0.23008089    -0.09800
C2418       C  0.89046420  0.96633518  0.21198986    -0.02700
H2419       H  0.85020779  0.95433867  0.24361473     0.04700
C2420       C  0.87882720  0.97864055  0.26071163     0.20100
H2421       H  0.90195328  0.96991923  0.20347476     0.09800
C2422       C  0.88705361  0.95660542  0.27284619    -0.16100
C2423       C  0.88770784  0.96415017  0.29109488     0.02800
C2424       C  0.87995507  0.99437125  0.29748708    -0.11400
C2425       C  0.87197633  0.01650639  0.28509700    -0.01500
C2426       C  0.87140628  0.00891016  0.26693915    -0.06600
H2427       H  0.89276002  0.93317460  0.26811483     0.05800
H2428       H  0.86616185  0.04005560  0.28952507     0.09200
Br2429     Br  0.91432884  0.99249223  0.23843819    -0.06300
Br2430     Br  0.83622861  0.93552978  0.20933015    -0.03300
Br2431     Br  0.89834930  0.93104677  0.30648528    -0.00400
Br2432     Br  0.86056252  0.04080823  0.25098422    -0.04800
C2433       C  0.70900899  0.61065050  0.37011668    -0.12200
C2434       C  0.71762940  0.57920354  0.37202734     0.03300
C2435       C  0.73636397  0.57764775  0.37271133    -0.12700
C2436       C  0.74673408  0.60709221  0.37140235     0.18100
C2437       C  0.73806271  0.63836216  0.36927321    -0.09800
C2438       C  0.71941690  0.63991192  0.36859779    -0.02700
H2439       H  0.74288205  0.55336239  0.37398353     0.04700
C2440       C  0.76654717  0.60475227  0.37155602     0.20100
H2441       H  0.71298085  0.66425959  0.36719109     0.09800
C2442       C  0.77600655  0.61019306  0.35570663    -0.16100
C2443       C  0.79468434  0.60800608  0.35523416     0.02800
C2444       C  0.80434276  0.59972455  0.37083333    -0.11400
C2445       C  0.79481723  0.59535530  0.38683050    -0.01500
C2446       C  0.77613354  0.59779884  0.38727563    -0.06600
H2447       H  0.76878919  0.61635376  0.34362085     0.05800
H2448       H  0.80188627  0.58926561  0.39901148     0.09200
Br2449     Br  0.75110518  0.67983047  0.36777135    -0.06300
Br2450     Br  0.70445989  0.53771626  0.37234670    -0.03300
Br2451     Br  0.80619560  0.61864417  0.33311656    -0.00400
Br2452     Br  0.76426240  0.59216297  0.40969529    -0.04800
C2453       C  0.62218614  0.80688113  0.37242741    -0.12200
C2454       C  0.60618743  0.82536033  0.37420935     0.03300
C2455       C  0.60675351  0.86075727  0.37453938    -0.12700
C2456       C  0.62304105  0.87795142  0.37276450     0.18100
C2457       C  0.63883179  0.85948404  0.37025666    -0.09800
C2458       C  0.63834761  0.82433871  0.37032934    -0.02700
H2459       H  0.59451658  0.87489862  0.37635813     0.04700
C2460       C  0.62359178  0.91513022  0.37375832     0.20100
H2461       H  0.65072271  0.81049628  0.36875464     0.09800
C2462       C  0.62683238  0.93071167  0.39018687    -0.16100
C2463       C  0.62847043  0.96585521  0.39143974     0.02800
C2464       C  0.62683904  0.98602755  0.37599159    -0.11400
C2465       C  0.62356277  0.97008339  0.35956945    -0.01500
C2466       C  0.62203091  0.93504092  0.35836465    -0.06600
H2467       H  0.62813693  0.91540533  0.40208348     0.05800
H2468       H  0.62231504  0.98496617  0.34751817     0.09200
Br2469     Br  0.66136661  0.88129667  0.36657936    -0.06300
Br2470     Br  0.58352470  0.80360648  0.37730180    -0.03300
Br2471     Br  0.63185068  0.98459840  0.41469794    -0.00400
Br2472     Br  0.61818530  0.91528231  0.33539224    -0.04800
C2473       C  0.63062499  0.30802003  0.37864115    -0.12200
C2474       C  0.61526969  0.32818275  0.37607409     0.03300
C2475       C  0.61673111  0.36335858  0.37665430    -0.12700
C2476       C  0.63323638  0.37888166  0.37987596     0.18100
C2477       C  0.64846045  0.35892441  0.38266246    -0.09800
C2478       C  0.64708855  0.32388170  0.38199029    -0.02700
H2479       H  0.60493216  0.37873715  0.37465339     0.04700
C2480       C  0.63447124  0.41595393  0.37970198     0.20100
H2481       H  0.65904286  0.30894101  0.38399370     0.09800
C2482       C  0.63680689  0.43352019  0.39573045    -0.16100
C2483       C  0.63760969  0.46880530  0.39589299     0.02800
C2484       C  0.63608670  0.48686475  0.37975520    -0.11400
C2485       C  0.63415775  0.46900906  0.36372980    -0.01500
C2486       C  0.63332453  0.43390025  0.36360929    -0.06600
H2487       H  0.63764711  0.41972706  0.40816919     0.05800
H2488       H  0.63299254  0.48250798  0.35122144     0.09200
Br2489     Br  0.67147236  0.37850301  0.38698303    -0.06300
Br2490     Br  0.59183203  0.30952936  0.37290736    -0.03300
Br2491     Br  0.63921624  0.49083002  0.41857151    -0.00400
Br2492     Br  0.63055804  0.41146158  0.34116276    -0.04800
C2493       C  0.70719986  0.09774362  0.37241223    -0.12200
C2494       C  0.71697107  0.09013225  0.35687145     0.03300
C2495       C  0.73555342  0.08753069  0.35765933    -0.12700
C2496       C  0.74474304  0.09154477  0.37379747     0.18100
C2497       C  0.73496790  0.09809156  0.38943176    -0.09800
C2498       C  0.71637607  0.10107470  0.38863420    -0.02700
H2499       H  0.74291101  0.08241736  0.34555610     0.04700
C2500       C  0.76449235  0.08945802  0.37385788     0.20100
H2501       H  0.70910824  0.10693457  0.40069620     0.09800
C2502       C  0.77457602  0.11758206  0.37915189    -0.16100
C2503       C  0.79326833  0.11680177  0.37883804     0.02800
C2504       C  0.80214261  0.08768327  0.37267674    -0.11400
C2505       C  0.79201213  0.05976626  0.36727801    -0.01500
C2506       C  0.77342630  0.06030220  0.36793622    -0.06600
H2507       H  0.76785172  0.14038532  0.38338779     0.05800
H2508       H  0.79862890  0.03700537  0.36279815     0.09200
Br2509     Br  0.74627607  0.10279830  0.41223141    -0.06300
Br2510     Br  0.70575590  0.08135891  0.33435772    -0.03300
Br2511     Br  0.80575281  0.15675670  0.38602757    -0.00400
Br2512     Br  0.76107599  0.01992655  0.36116233    -0.04800
C2513       C  0.70657925  0.82617101  0.13100631    -0.12200
C2514       C  0.71756125  0.82101559  0.14617407     0.03300
C2515       C  0.73604879  0.82360236  0.14462340    -0.12700
C2516       C  0.74396842  0.83189391  0.12837219     0.18100
C2517       C  0.73326437  0.83696099  0.11325939    -0.09800
C2518       C  0.71473811  0.83401643  0.11463099    -0.02700
H2519       H  0.74432922  0.82030691  0.15634357     0.04700
C2520       C  0.76324816  0.83851809  0.12803990     0.20100
H2521       H  0.70672645  0.83779996  0.10278242     0.09800
C2522       C  0.77500887  0.81421636  0.12131191    -0.16100
C2523       C  0.79347399  0.81960682  0.12170476     0.02800
C2524       C  0.80029045  0.84990531  0.12887846    -0.11400
C2525       C  0.78833475  0.87404885  0.13560358    -0.01500
C2526       C  0.76998622  0.86854111  0.13525098    -0.06600
H2527       H  0.76980847  0.79078128  0.11604851     0.05800
H2528       H  0.79326704  0.89754696  0.14104641     0.09200
Br2529     Br  0.74338257  0.84904360  0.09069674    -0.06300
Br2530     Br  0.70866480  0.81285594  0.16978182    -0.03300
Br2531     Br  0.80856269  0.78371487  0.11352567    -0.00400
Br2532     Br  0.75452280  0.90277770  0.14467780    -0.04800
C2533       C  0.62485837  0.73825913  0.20555584    -0.12200
C2534       C  0.60892743  0.74280842  0.21537615     0.03300
C2535       C  0.60843868  0.73489359  0.23359954    -0.12700
C2536       C  0.62363360  0.72270344  0.24246822     0.18100
C2537       C  0.63952802  0.71825955  0.23273043    -0.09800
C2538       C  0.64004856  0.72612182  0.21454227    -0.02700
H2539       H  0.59615425  0.73852307  0.24094138     0.04700
C2540       C  0.62271401  0.71409255  0.26174765     0.20100
H2541       H  0.65243400  0.72259594  0.20735550     0.09800
C2542       C  0.62480397  0.68033940  0.26700271    -0.16100
C2543       C  0.62543318  0.67136352  0.28502584     0.02800
C2544       C  0.62384342  0.69633515  0.29827009    -0.11400
C2545       C  0.62084453  0.72990453  0.29305843    -0.01500
C2546       C  0.62033024  0.73893031  0.27497285    -0.06600
H2547       H  0.62620197  0.66089677  0.25699220     0.05800
H2548       H  0.61948607  0.74933299  0.30308229     0.09200
Br2549     Br  0.66108507  0.70249321  0.24381904    -0.06300
Br2550     Br  0.58779360  0.76217974  0.20516252    -0.03300
Br2551     Br  0.62784331  0.62442288  0.29083419    -0.00400
Br2552     Br  0.61728577  0.78566989  0.26906221    -0.04800
C2553       C  0.62575818  0.45059053  0.12404340    -0.12200
C2554       C  0.62625542  0.46877124  0.10791347     0.03300
C2555       C  0.62432342  0.50390656  0.10812060    -0.12700
C2556       C  0.62272948  0.52158271  0.12425640     0.18100
C2557       C  0.62266750  0.50334653  0.14037804    -0.09800
C2558       C  0.62392477  0.46824743  0.14012044    -0.02700
H2559       H  0.62424178  0.51757340  0.09561951     0.04700
C2560       C  0.62180001  0.55895586  0.12413122     0.20100
H2561       H  0.62368279  0.45461852  0.15263868     0.09800
C2562       C  0.60737194  0.57552497  0.13228590    -0.16100
C2563       C  0.60683322  0.61079362  0.13362116     0.02800
C2564       C  0.62069651  0.63030656  0.12606093    -0.11400
C2565       C  0.63484092  0.61338125  0.11751030    -0.01500
C2566       C  0.63555320  0.57835413  0.11658517    -0.06600
H2567       H  0.59658633  0.56083544  0.13794017     0.05800
H2568       H  0.64581546  0.62741280  0.11175977     0.09200
Br2569     Br  0.62171071  0.52494289  0.16322294    -0.06300
Br2570     Br  0.62889584  0.44700669  0.08526140    -0.03300
Br2571     Br  0.58675616  0.62999910  0.14580172    -0.00400
Br2572     Br  0.65629855  0.55868435  0.10573353    -0.04800
C2573       C  0.63490020  0.95079869  0.12801455    -0.12200
C2574       C  0.63727968  0.96785927  0.14426227     0.03300
C2575       C  0.63599473  0.00294020  0.14484464    -0.12700
C2576       C  0.63268906  0.02160968  0.12933812     0.18100
C2577       C  0.63169343  0.00481773  0.11283926    -0.09800
C2578       C  0.63267634  0.96953029  0.11228925    -0.02700
H2579       H  0.63754862  0.01575444  0.15747325     0.04700
C2580       C  0.63120156  0.05865936  0.13074753     0.20100
H2581       H  0.63117309  0.95668673  0.09966375     0.09800
C2582       C  0.64639347  0.07711807  0.13547940    -0.16100
C2583       C  0.64564148  0.11213678  0.13714001     0.02800
C2584       C  0.62950174  0.12939258  0.13384312    -0.11400
C2585       C  0.61406029  0.11078915  0.12996327    -0.01500
C2586       C  0.61478846  0.07558705  0.12849572    -0.06600
H2587       H  0.65890871  0.06416820  0.13790518     0.05800
H2588       H  0.60152959  0.12371216  0.12759499     0.09200
Br2589     Br  0.62932802  0.02903000  0.09081681    -0.06300
Br2590     Br  0.64326976  0.94441659  0.16583802    -0.03300
Br2591     Br  0.66681622  0.13492716  0.14491089    -0.00400
Br2592     Br  0.59304149  0.05168455  0.12381058    -0.04800
C2593       C  0.70518422  0.33553685  0.13083148    -0.12200
C2594       C  0.71674640  0.30776062  0.13313438     0.03300
C2595       C  0.73513679  0.31246494  0.13254447    -0.12700
C2596       C  0.74234201  0.34457645  0.12988277     0.18100
C2597       C  0.73088344  0.37233734  0.12723638    -0.09800
C2598       C  0.71237144  0.36760996  0.12758988    -0.02700
H2599       H  0.74391324  0.29096634  0.13429807     0.04700
C2600       C  0.76187156  0.34836106  0.13026255     0.20100
H2601       H  0.70359480  0.38908017  0.12578395     0.09800
C2602       C  0.77095603  0.35668306  0.11457815    -0.16100
C2603       C  0.78949032  0.36056599  0.11457946     0.02800
C2604       C  0.79922449  0.35536872  0.13046094    -0.11400
C2605       C  0.79005023  0.34657578  0.14608846    -0.01500
C2606       C  0.77153015  0.34306222  0.14609238    -0.06600
H2607       H  0.76353602  0.36083007  0.10237580     0.05800
H2608       H  0.79730400  0.34290254  0.15843251     0.09200
Br2609     Br  0.73993238  0.41717060  0.12398119    -0.06300
Br2610     Br  0.70831766  0.26247531  0.13628946    -0.03300
Br2611     Br  0.80037786  0.37630320  0.09298994    -0.00400
Br2612     Br  0.75992022  0.33253056  0.16819571    -0.04800
C2613       C  0.63070206  0.20325434  0.30002996    -0.12200
C2614       C  0.61619413  0.19330237  0.28926732     0.03300
C2615       C  0.61631879  0.20025817  0.27096731    -0.12700
C2616       C  0.63079823  0.21688832  0.26303428     0.18100
C2617       C  0.64531497  0.22680384  0.27376014    -0.09800
C2618       C  0.64522083  0.21978859  0.29205262    -0.02700
H2619       H  0.60512022  0.19240885  0.26283918     0.04700
C2620       C  0.63033723  0.22436854  0.24366486     0.20100
H2621       H  0.65660355  0.22707527  0.30007646     0.09800
C2622       C  0.62857468  0.25794988  0.23803824    -0.16100
C2623       C  0.62811092  0.26613084  0.21992027     0.02800
C2624       C  0.62937102  0.24047988  0.20701671    -0.11400
C2625       C  0.63076540  0.20679079  0.21259079    -0.01500
C2626       C  0.63133295  0.19861758  0.23076719    -0.06600
H2627       H  0.62748033  0.27788407  0.24781449     0.05800
H2628       H  0.63187077  0.18689399  0.20279504     0.09200
Br2629     Br  0.66588548  0.24867874  0.26387787    -0.06300
Br2630     Br  0.59657642  0.16773894  0.29856815    -0.03300
Br2631     Br  0.62481976  0.31259509  0.21343688    -0.00400
Br2632     Br  0.63425830  0.15217339  0.23732511    -0.04800
C2633       C  0.20745883  0.84772098  0.37615644    -0.12200
C2634       C  0.21620477  0.81836476  0.38229408     0.03300
C2635       C  0.23489822  0.81682888  0.38219359    -0.12700
C2636       C  0.24513755  0.84444113  0.37647416     0.18100
C2637       C  0.23641428  0.87423378  0.37111136    -0.09800
C2638       C  0.21779148  0.87555851  0.37085477    -0.02700
H2639       H  0.24148624  0.79372570  0.38625827     0.04700
C2640       C  0.26481079  0.84129462  0.37527587     0.20100
H2641       H  0.21132679  0.89862314  0.36651755     0.09800
C2642       C  0.27298202  0.84376840  0.35854602    -0.16100
C2643       C  0.29152321  0.84167049  0.35674564     0.02800
C2644       C  0.30236430  0.83647146  0.37195641    -0.11400
C2645       C  0.29407492  0.83391821  0.38872276    -0.01500
C2646       C  0.27550283  0.83619766  0.39045529    -0.06600
H2647       H  0.26484106  0.84768803  0.34678570     0.05800
H2648       H  0.30204228  0.82968911  0.40056458     0.09200
Br2649     Br  0.24934493  0.91406109  0.36437927    -0.06300
Br2650     Br  0.20349491  0.77886527  0.38978419    -0.03300
Br2651     Br  0.30097542  0.84792025  0.33320247    -0.00400
Br2652     Br  0.26537849  0.83318452  0.41385724    -0.04800
C2653       C  0.45666822  0.72890597  0.38223561    -0.12200
C2654       C  0.46994391  0.74822777  0.37381322     0.03300
C2655       C  0.48777830  0.73827842  0.37491359    -0.12700
C2656       C  0.49263554  0.70881368  0.38406224     0.18100
C2657       C  0.47928830  0.68893336  0.39209133    -0.09800
C2658       C  0.46140816  0.69927667  0.39129090    -0.02700
H2659       H  0.49793990  0.75360173  0.36860470     0.04700
C2660       C  0.51176260  0.69984518  0.38505001     0.20100
H2661       H  0.45119139  0.68406587  0.39758117     0.09800
C2662       C  0.52106731  0.70413663  0.40110163    -0.16100
C2663       C  0.53958253  0.69915098  0.40197392     0.02800
C2664       C  0.54912807  0.69046642  0.38643216    -0.11400
C2665       C  0.53963481  0.68574857  0.37046601    -0.01500
C2666       C  0.52113715  0.68994066  0.36974232    -0.06600
H2667       H  0.51392936  0.71200783  0.41291785     0.05800
H2668       H  0.54660479  0.67809764  0.35850897     0.09200
Br2669     Br  0.48476931  0.64687269  0.40346982    -0.06300
Br2670     Br  0.46435540  0.78849245  0.36071962    -0.03300
Br2671     Br  0.55106212  0.70636244  0.42447883    -0.00400
Br2672     Br  0.50909575  0.68072507  0.34772235    -0.04800
C2673       C  0.38170831  0.45471381  0.37776192    -0.12200
C2674       C  0.36636194  0.47411735  0.38176007     0.03300
C2675       C  0.36705580  0.50930855  0.38042308    -0.12700
C2676       C  0.38262663  0.52561106  0.37476485     0.18100
C2677       C  0.39785907  0.50657561  0.37072144    -0.09800
C2678       C  0.39734328  0.47155722  0.37228863    -0.02700
H2679       H  0.35528040  0.52406106  0.38349500     0.04700
C2680       C  0.38296825  0.56263512  0.37372160     0.20100
H2681       H  0.40931381  0.45745141  0.36913913     0.09800
C2682       C  0.38501416  0.58096299  0.38946669    -0.16100
C2683       C  0.38555910  0.61609776  0.38911495     0.02800
C2684       C  0.38397140  0.63341430  0.37275599    -0.11400
C2685       C  0.38230269  0.61499382  0.35692325    -0.01500
C2686       C  0.38163307  0.57974531  0.35733375    -0.06600
H2687       H  0.38629839  0.56782546  0.40206868     0.05800
H2688       H  0.38088548  0.62804769  0.34431604     0.09200
Br2689     Br  0.41970306  0.52746507  0.36319701    -0.06300
Br2690     Br  0.34367802  0.45468731  0.38775767    -0.03300
Br2691     Br  0.38929536  0.63903624  0.41129998    -0.00400
Br2692     Br  0.37815506  0.55597871  0.33539793    -0.04800
C2693       C  0.37841661  0.95385345  0.37425350    -0.12200
C2694       C  0.38003592  0.97167931  0.35798252     0.03300
C2695       C  0.38020586  0.00687232  0.35792143    -0.12700
C2696       C  0.37854693  0.02490214  0.37378330     0.18100
C2697       C  0.37618605  0.00742386  0.38992294    -0.09800
C2698       C  0.37615749  0.97210504  0.39008868    -0.02700
H2699       H  0.38149952  0.02030346  0.34541059     0.04700
C2700       C  0.37862733  0.06201989  0.37307826     0.20100
H2701       H  0.37477774  0.95891304  0.40265402     0.09800
C2702       C  0.36236323  0.07909389  0.37160101    -0.16100
C2703       C  0.36179719  0.11429171  0.37112745     0.02800
C2704       C  0.37781973  0.13308316  0.37209718    -0.11400
C2705       C  0.39416275  0.11570934  0.37299357    -0.01500
C2706       C  0.39464610  0.08043726  0.37353648    -0.06600
H2707       H  0.35003156  0.06490119  0.37087140     0.05800
H2708       H  0.40658149  0.12960351  0.37375947     0.09200
Br2709     Br  0.37316498  0.03096333  0.41197186    -0.06300
Br2710     Br  0.38092095  0.94980432  0.33522728    -0.03300
Br2711     Br  0.33873374  0.13470222  0.36835570    -0.00400
Br2712     Br  0.41737572  0.05837983  0.37528079    -0.04800
C2713       C  0.30273664  0.34810140  0.37190875    -0.12200
C2714       C  0.29186730  0.34993469  0.35648582     0.03300
C2715       C  0.27345181  0.35476957  0.35818242    -0.12700
C2716       C  0.26553643  0.35860151  0.37493835     0.18100
C2717       C  0.27636203  0.35879307  0.39021202    -0.09800
C2718       C  0.29473539  0.35344693  0.38863956    -0.02700
H2719       H  0.26518442  0.35520343  0.34633609     0.04700
C2720       C  0.24588106  0.36058917  0.37613683     0.20100
H2721       H  0.30270221  0.35275846  0.40067590     0.09800
C2722       C  0.23640741  0.33281211  0.38276783    -0.16100
C2723       C  0.21772608  0.33226771  0.38251205     0.02800
C2724       C  0.20818597  0.35986585  0.37530116    -0.11400
C2725       C  0.21779646  0.38803836  0.36910179    -0.01500
C2726       C  0.23645385  0.38863157  0.36957607    -0.06600
H2727       H  0.24362345  0.31104273  0.38774201     0.05800
H2728       H  0.21075563  0.40983447  0.36391483     0.09200
Br2729     Br  0.26665680  0.36680159  0.41343270    -0.06300
Br2730     Br  0.30105638  0.34739133  0.33265726    -0.03300
Br2731     Br  0.20629219  0.29207681  0.39097209    -0.00400
Br2732     Br  0.24856692  0.42842091  0.36147867    -0.04800
C2733       C  0.45761124  0.23581001  0.38399246    -0.12200
C2734       C  0.46915745  0.24423113  0.39839243     0.03300
C2735       C  0.48749534  0.23810237  0.39709844    -0.12700
C2736       C  0.49486778  0.22357983  0.38187561     0.18100
C2737       C  0.48363434  0.21453589  0.36770118    -0.09800
C2738       C  0.46525510  0.22077172  0.36877842    -0.02700
H2739       H  0.49613044  0.24449909  0.40817281     0.04700
C2740       C  0.51416480  0.21593304  0.38174345     0.20100
H2741       H  0.45698334  0.21403121  0.35750929     0.09800
C2742       C  0.51988601  0.18505093  0.38868081    -0.16100
C2743       C  0.53802583  0.17712536  0.38969901     0.02800
C2744       C  0.55099155  0.20071106  0.38389250    -0.11400
C2745       C  0.54512449  0.23159884  0.37668663    -0.01500
C2746       C  0.52687584  0.23932453  0.37564079    -0.06600
H2747       H  0.51011422  0.16687633  0.39326512     0.05800
H2748       H  0.55475418  0.24986189  0.37192422     0.09200
Br2749     Br  0.49290715  0.19354224  0.34667841    -0.06300
Br2750     Br  0.46153144  0.26372641  0.42053971    -0.03300
Br2751     Br  0.54371778  0.13255077  0.39791446    -0.00400
Br2752     Br  0.51981217  0.28194085  0.36579327    -0.04800
C2753       C  0.20726287  0.57823460  0.12950823    -0.12200
C2754       C  0.21552340  0.61001135  0.12790063     0.03300
C2755       C  0.23412950  0.61205096  0.12634657    -0.12700
C2756       C  0.24462412  0.58272988  0.12587224     0.18100
C2757       C  0.23627392  0.55101418  0.12653286    -0.09800
C2758       C  0.21777013  0.54895682  0.12865334    -0.02700
H2759       H  0.24047171  0.63657138  0.12582701     0.04700
C2760       C  0.26428757  0.58566203  0.12618134     0.20100
H2761       H  0.21150902  0.52436632  0.12933168     0.09800
C2762       C  0.27329498  0.58000811  0.14227753    -0.16100
C2763       C  0.29180130  0.58398903  0.14349606     0.02800
C2764       C  0.30168844  0.59350161  0.12829760    -0.11400
C2765       C  0.29264239  0.59822780  0.11205365    -0.01500
C2766       C  0.27408703  0.59463557  0.11094837    -0.06600
H2767       H  0.26582095  0.57286091  0.15403031     0.05800
H2768       H  0.29996065  0.60569442  0.10025979     0.09200
Br2769     Br  0.24959910  0.51000824  0.12392506    -0.06300
Br2770     Br  0.20211035  0.65122365  0.12873808    -0.03300
Br2771     Br  0.30272427  0.57520683  0.16617645    -0.00400
Br2772     Br  0.26269240  0.60211573  0.08841682    -0.04800
C2773       C  0.54789033  0.74242788  0.11873240    -0.12200
C2774       C  0.53893290  0.73311649  0.10298043     0.03300
C2775       C  0.52048908  0.72782987  0.10329640    -0.12700
C2776       C  0.51068276  0.73229057  0.11903049     0.34100
C2777       C  0.51972038  0.74133077  0.13479395    -0.09800
C2778       C  0.53814766  0.74605572  0.13453346    -0.02700
H2779       H  0.51378138  0.71981784  0.09124455     0.04700
C2780       C  0.49130595  0.72519413  0.11901877     0.20100
H2781       H  0.54484159  0.75359141  0.14668639     0.09800
C2782       C  0.48477970  0.70030886  0.13056219    -0.16100
C2783       C  0.46665415  0.69269967  0.13113210     0.02800
C2784       C  0.45478406  0.70881659  0.11931136    -0.11400
C2785       C  0.46123094  0.73326104  0.10747454    -0.01500
C2786       C  0.47933342  0.74204087  0.10748943    -0.06600
H2787       H  0.49385781  0.68676546  0.13925621     0.05800
H2788       H  0.45211925  0.74595193  0.09846566     0.09200
Br2789     Br  0.50761473  0.74900597  0.15694271    -0.06300
Br2790     Br  0.55126127  0.72536760  0.08098203    -0.03300
Br2791     Br  0.45896915  0.65941413  0.14804468    -0.00400
Br2792     Br  0.48680485  0.77819805  0.09220765    -0.04800
C2793       C  0.37775638  0.69541483  0.20411988    -0.12200
C2794       C  0.36294972  0.69287171  0.21578302     0.03300
C2795       C  0.36472764  0.70232743  0.23359657    -0.12700
C2796       C  0.38093027  0.71443481  0.24023352     0.18100
C2797       C  0.39571942  0.71697868  0.22885326    -0.09800
C2798       C  0.39406478  0.70755104  0.21098432    -0.02700
H2799       H  0.35329173  0.70053568  0.24236287     0.04700
C2800       C  0.38181155  0.72449286  0.25909729     0.20100
H2801       H  0.40566780  0.70960824  0.20247308     0.09800
C2802       C  0.38587795  0.70015115  0.27202115    -0.16100
C2803       C  0.38493253  0.70787097  0.29017154     0.02800
C2804       C  0.37979222  0.74058981  0.29560825    -0.11400
C2805       C  0.37581344  0.76491046  0.28254025    -0.01500
C2806       C  0.37683303  0.75711141  0.26442851    -0.06600
H2807       H  0.38933819  0.67477757  0.26795702     0.05800
H2808       H  0.37199743  0.79020147  0.28642445     0.09200
Br2809     Br  0.41831433  0.73340229  0.23713591    -0.06300
Br2810     Br  0.33958883  0.67831104  0.20857884    -0.03300
Br2811     Br  0.38937844  0.67187229  0.30674508    -0.00400
Br2812     Br  0.37105664  0.79152860  0.24737308    -0.04800
C2813       C  0.37796111  0.98582212  0.12677819    -0.12200
C2814       C  0.39352695  0.96624146  0.12465032     0.03300
C2815       C  0.39250723  0.93112925  0.12551491    -0.12700
C2816       C  0.37612810  0.91501822  0.12830848     0.18100
C2817       C  0.36051944  0.93445277  0.13028677    -0.09800
C2818       C  0.36151212  0.96964779  0.12940585    -0.02700
H2819       H  0.40450661  0.91625459  0.12371502     0.04700
C2820       C  0.37568335  0.87786593  0.12860869     0.20100
H2821       H  0.34948379  0.98444227  0.13119310     0.09800
C2822       C  0.38284169  0.86054420  0.14324882    -0.16100
C2823       C  0.38338308  0.82524840  0.14362102     0.02800
C2824       C  0.37668943  0.80665804  0.12899197    -0.11400
C2825       C  0.36953456  0.82444069  0.11435488    -0.01500
C2826       C  0.36909893  0.85960374  0.11403467    -0.06600
H2827       H  0.38803100  0.87462609  0.15445971     0.05800
H2828       H  0.36451881  0.81099527  0.10285723     0.09200
Br2829     Br  0.33773680  0.91401867  0.13467941    -0.06300
Br2830     Br  0.41629438  0.98599494  0.11935414    -0.03300
Br2831     Br  0.39285498  0.80462986  0.16478793    -0.00400
Br2832     Br  0.36012741  0.88164624  0.09305984    -0.04800
C2833       C  0.37852170  0.48520558  0.12377036    -0.12200
C2834       C  0.36348224  0.46598094  0.11856940     0.03300
C2835       C  0.36413560  0.43070958  0.11969641    -0.12700
C2836       C  0.37933628  0.41424560  0.12632158     0.18100
C2837       C  0.39412372  0.43326991  0.13177647    -0.09800
C2838       C  0.39368426  0.46823987  0.13035097    -0.02700
H2839       H  0.35266492  0.41602922  0.11558867     0.04700
C2840       C  0.37996280  0.37714516  0.12677011     0.20100
H2841       H  0.40539802  0.48221124  0.13446041     0.09800
C2842       C  0.38337572  0.35980013  0.11094265    -0.16100
C2843       C  0.38477930  0.32469745  0.11085964     0.02800
C2844       C  0.38280273  0.30638380  0.12687236    -0.11400
C2845       C  0.37963469  0.32387742  0.14278208    -0.01500
C2846       C  0.37800467  0.35904708  0.14278099    -0.06600
H2847       H  0.38512479  0.37369638  0.09863155     0.05800
H2848       H  0.37774628  0.31008415  0.15509953     0.09200
Br2849     Br  0.41534617  0.41267476  0.14114574    -0.06300
Br2850     Br  0.34133719  0.48580568  0.11091812    -0.03300
Br2851     Br  0.39020046  0.30325682  0.08862574    -0.00400
Br2852     Br  0.37232327  0.38134681  0.16468588    -0.04800
C2853       C  0.30075706  0.10006055  0.12965936    -0.12200
C2854       C  0.29077167  0.09857144  0.11364573     0.03300
C2855       C  0.27219436  0.09501687  0.11431013    -0.12700
C2856       C  0.26323785  0.09253512  0.13061313     0.18100
C2857       C  0.27318743  0.09242457  0.14650987    -0.09800
C2858       C  0.29168309  0.09648260  0.14593287    -0.02700
H2859       H  0.26463288  0.09439907  0.10200884     0.04700
C2860       C  0.24358473  0.08902249  0.13073594     0.20100
H2861       H  0.29901245  0.09696853  0.15837314     0.09800
C2862       C  0.23615336  0.05837751  0.13620402    -0.16100
C2863       C  0.21768751  0.05388472  0.13664523     0.02800
C2864       C  0.20617298  0.08039726  0.13138833    -0.11400
C2865       C  0.21365384  0.11089197  0.12547781    -0.01500
C2866       C  0.23221307  0.11542725  0.12523542    -0.06600
H2867       H  0.24481796  0.03773923  0.14010666     0.05800
H2868       H  0.20504192  0.13147613  0.12139998     0.09200
Br2869     Br  0.26218196  0.08762194  0.16941828    -0.06300
Br2870     Br  0.30110754  0.10298141  0.09041209    -0.03300
Br2871     Br  0.20925480  0.01012452  0.14358219    -0.00400
Br2872     Br  0.24140461  0.15845334  0.11798587    -0.04800
C2873       C  0.45782712  0.19755864  0.12220076    -0.12200
C2874       C  0.46938764  0.17794490  0.13278225     0.03300
C2875       C  0.48772821  0.18378527  0.13225068    -0.12700
C2876       C  0.49480464  0.20941345  0.12150644     0.18100
C2877       C  0.48321949  0.22894308  0.11081677    -0.09800
C2878       C  0.46484285  0.22270394  0.11113558    -0.02700
H2879       H  0.49654154  0.16823738  0.14025618     0.04700
C2880       C  0.51428368  0.21517258  0.12164013     0.20100
H2881       H  0.45600325  0.23759823  0.10282094     0.09800
C2882       C  0.52410609  0.21017448  0.10598577    -0.16100
C2883       C  0.54249362  0.21614431  0.10555232     0.02800
C2884       C  0.55138844  0.22697282  0.12108347    -0.11400
C2885       C  0.54160289  0.23071812  0.13690685    -0.01500
C2886       C  0.52322643  0.22495416  0.13729489    -0.06600
H2887       H  0.51739791  0.20170403  0.09402103     0.05800
H2888       H  0.54817165  0.23926232  0.14893641     0.09200
Br2889     Br  0.49173338  0.26498627  0.09602002    -0.06300
Br2890     Br  0.46089134  0.14200682  0.14765632    -0.03300
Br2891     Br  0.55475738  0.20776578  0.08360293    -0.00400
Br2892     Br  0.51086928  0.23224556  0.15935182    -0.04800
C2893       C  0.38012697  0.24445353  0.29751927    -0.12200
C2894       C  0.37854223  0.26857875  0.28373742     0.03300
C2895       C  0.37860937  0.25822937  0.26592924    -0.12700
C2896       C  0.38007515  0.22402399  0.26148287     0.18100
C2897       C  0.38197376  0.19997438  0.27518206    -0.09800
C2898       C  0.38216223  0.21031133  0.29300783    -0.02700
H2899       H  0.37737743  0.27694547  0.25546715     0.04700
C2900       C  0.37937311  0.21401999  0.24249251     0.20100
H2901       H  0.38330911  0.19146597  0.30341353     0.09800
C2902       C  0.39498035  0.20321959  0.23394866    -0.16100
C2903       C  0.39479586  0.19412813  0.21592465     0.02800
C2904       C  0.37873280  0.19611531  0.20602813    -0.11400
C2905       C  0.36308190  0.20646143  0.21477105    -0.01500
C2906       C  0.36331808  0.21547438  0.23277389    -0.06600
H2907       H  0.40735181  0.20165818  0.24139281     0.05800
H2908       H  0.35059963  0.20794724  0.20751259     0.09200
Br2909     Br  0.38330484  0.15263458  0.27020513    -0.06300
Br2910     Br  0.37698991  0.31607229  0.28833409    -0.03300
Br2911     Br  0.41661213  0.17687646  0.20612292    -0.00400
Br2912     Br  0.34130895  0.22906190  0.24363996    -0.04800
C2913       C  0.12761383  0.83319047  0.54930971    -0.12200
C2914       C  0.13425317  0.80323480  0.54159009     0.03300
C2915       C  0.13420748  0.79955031  0.52297464    -0.12700
C2916       C  0.12781361  0.82550982  0.51192352     0.18100
C2917       C  0.12147710  0.85544675  0.51961824    -0.09800
C2918       C  0.12126828  0.85894969  0.53806891    -0.02700
H2919       H  0.13919259  0.77647329  0.51710406     0.04700
C2920       C  0.12815635  0.82216793  0.49233087     0.20100
H2921       H  0.11641525  0.88238838  0.54366000     0.09800
C2922       C  0.11227691  0.81476851  0.48323245    -0.16100
C2923       C  0.11115321  0.81846808  0.46470947     0.02800
C2924       C  0.12612448  0.82969334  0.45499923    -0.11400
C2925       C  0.14234323  0.83483003  0.46405355    -0.01500
C2926       C  0.14338419  0.83146164  0.48258293    -0.06600
H2927       H  0.10049692  0.80755941  0.49066417     0.05800
H2928       H  0.15398658  0.84348490  0.45683672     0.09200
Br2929     Br  0.11359162  0.89285152  0.50534783    -0.06300
Br2930     Br  0.14271762  0.76615595  0.55570193    -0.03300
Br2931     Br  0.08892877  0.80775095  0.45336216    -0.00400
Br2932     Br  0.16532597  0.84293437  0.49429155    -0.04800
C2933       C  0.12059459  0.33460291  0.54943709    -0.12200
C2934       C  0.10642540  0.34339379  0.53768843     0.03300
C2935       C  0.10836049  0.33874905  0.51931642    -0.12700
C2936       C  0.12381736  0.32430059  0.51210441     0.18100
C2937       C  0.13741594  0.31353953  0.52374761    -0.09800
C2938       C  0.13579847  0.31890288  0.54210220    -0.02700
H2939       H  0.09774807  0.34699171  0.51050358     0.04700
C2940       C  0.12586370  0.32318666  0.49240632     0.20100
H2941       H  0.14673023  0.31110439  0.55060973     0.09800
C2942       C  0.13960371  0.34188631  0.48439683    -0.16100
C2943       C  0.14047809  0.34561752  0.46587649     0.02800
C2944       C  0.12722976  0.33104414  0.45499488    -0.11400
C2945       C  0.11385135  0.31136710  0.46290876    -0.01500
C2946       C  0.11325393  0.30692483  0.48141735    -0.06600
H2947       H  0.14926499  0.35488172  0.49263684     0.05800
H2948       H  0.10367085  0.29984507  0.45467525     0.09200
Br2949     Br  0.15829134  0.29062573  0.51529968    -0.06300
Br2950     Br  0.08380675  0.36136052  0.54519978    -0.03300
Br2951     Br  0.15896677  0.37378501  0.45629510    -0.00400
Br2952     Br  0.09506496  0.27823344  0.49106270    -0.04800
C2953       C  0.12234370  0.54376571  0.63173622    -0.12200
C2954       C  0.11923128  0.56149020  0.61573669     0.03300
C2955       C  0.12048731  0.59657054  0.61537480    -0.12700
C2956       C  0.12486377  0.61463851  0.63075987     0.18100
C2957       C  0.12705101  0.59713456  0.64700838    -0.09800
C2958       C  0.12575711  0.56186335  0.64739027    -0.02700
H2959       H  0.11833251  0.60983348  0.60292733     0.04700
C2960       C  0.12680445  0.65168842  0.62933914     0.20100
H2961       H  0.12805794  0.54850289  0.65978048     0.09800
C2962       C  0.11182122  0.67102122  0.62475585    -0.16100
C2963       C  0.11315675  0.70591053  0.62260933     0.02800
C2964       C  0.12960396  0.72226628  0.62547277    -0.11400
C2965       C  0.14482160  0.70281434  0.62921780    -0.01500
C2966       C  0.14355511  0.66762930  0.63089119    -0.06600
H2967       H  0.09905417  0.65883248  0.62266313     0.05800
H2968       H  0.15761321  0.71500569  0.63111062     0.09200
Br2969     Br  0.13182790  0.62013344  0.66893301    -0.06300
Br2970     Br  0.11283483  0.53905738  0.59403143    -0.03300
Br2971     Br  0.09238833  0.72996826  0.61461865    -0.00400
Br2972     Br  0.16506174  0.64209538  0.63431671    -0.04800
C2973       C  0.12857255  0.22314253  0.62333710    -0.12200
C2974       C  0.14429750  0.20438780  0.62016184     0.03300
C2975       C  0.14368600  0.16905183  0.62052199    -0.12700
C2976       C  0.12760320  0.15203881  0.62376070     0.18100
C2977       C  0.11188237  0.17061525  0.62637579    -0.09800
C2978       C  0.11247386  0.20576834  0.62627831    -0.02700
H2979       H  0.15583221  0.15475027  0.61845366     0.04700
C2980       C  0.12746494  0.11488891  0.62466981     0.20100
H2981       H  0.10021139  0.21963114  0.62850540     0.09800
C2982       C  0.12994690  0.09889917  0.64115577    -0.16100
C2983       C  0.13008371  0.06367057  0.64244271     0.02800
C2984       C  0.12780238  0.04397072  0.62702040    -0.11400
C2985       C  0.12519694  0.06014037  0.61055113    -0.01500
C2986       C  0.12484833  0.09531939  0.60932471    -0.06600
H2987       H  0.13197651  0.11390860  0.65301767     0.05800
H2988       H  0.12335560  0.04531212  0.59859295     0.09200
Br2989     Br  0.08929356  0.14897628  0.63002286    -0.06300
Br2990     Br  0.16710670  0.22523225  0.61633786    -0.03300
Br2991     Br  0.13481093  0.04385933  0.66525684    -0.00400
Br2992     Br  0.12057980  0.11571035  0.58653301    -0.04800
C2993       C  0.12474726  0.57826116  0.95763313    -0.12200
C2994       C  0.11984802  0.55387263  0.97049900     0.03300
C2995       C  0.12016627  0.56199518  0.98859942    -0.12700
C2996       C  0.12556805  0.59393337  0.99438855     0.18100
C2997       C  0.13097614  0.61804282  0.98173551    -0.09800
C2998       C  0.13048845  0.61015543  0.96352674    -0.02700
H2999       H  0.11646254  0.54300347  0.99830738     0.04700
C3000       C  0.12610341  0.60038029  0.01380310     0.20100
H3001       H  0.13451063  0.62910599  0.95393408     0.09800
C3002       C  0.14162150  0.59218416  0.02327861    -0.16100
C3003       C  0.14161725  0.59089472  0.04191474     0.02800
C3004       C  0.12588881  0.59866481  0.05150140    -0.11400
C3005       C  0.11056156  0.60833083  0.04191833    -0.01500
C3006       C  0.11056708  0.60907666  0.02324858    -0.06600
H3007       H  0.15347567  0.58451389  0.01609495     0.05800
H3008       H  0.09829731  0.61386198  0.04895687     0.09200
Br3009     Br  0.13917595  0.66179755  0.98876535    -0.06300
Br3010     Br  0.11409846  0.50810049  0.96454920    -0.03300
Br3011     Br  0.16266866  0.57303907  0.05309125    -0.00400
Br3012     Br  0.08874904  0.61968773  0.01108451    -0.04800
C3013       C  0.13489488  0.43903473  0.70667097    -0.12200
C3014       C  0.14255332  0.41858202  0.72017430     0.03300
C3015       C  0.14197707  0.42885939  0.73793682    -0.12700
C3016       C  0.13382162  0.45915833  0.74282591     0.18100
C3017       C  0.12640339  0.47997410  0.72953583    -0.09800
C3018       C  0.12686783  0.46975011  0.71167595    -0.02700
H3019       H  0.14771170  0.41275058  0.74812578     0.04700
C3020       C  0.13359618  0.46840244  0.76190328     0.20100
H3021       H  0.12100310  0.48602806  0.70164721     0.09800
C3022       C  0.14976415  0.47600177  0.77034645    -0.16100
C3023       C  0.15047938  0.48258958  0.78862203     0.02800
C3024       C  0.13458444  0.48258187  0.79884752    -0.11400
C3025       C  0.11843042  0.47419884  0.79029581    -0.01500
C3026       C  0.11790001  0.46664500  0.77210747    -0.06600
H3027       H  0.16201374  0.47602966  0.76269419     0.05800
H3028       H  0.10608662  0.47335622  0.79776225     0.09200
Br3029     Br  0.11599868  0.52288419  0.73514201    -0.06300
Br3030     Br  0.15297249  0.37518379  0.71596479    -0.03300
Br3031     Br  0.17386740  0.48854241  0.79864385    -0.00400
Br3032     Br  0.09568843  0.45192077  0.76204176    -0.04800
C3033       C  0.12474874  0.09153146  0.04866804    -0.12200
C3034       C  0.10909049  0.09360129  0.03808939     0.03300
C3035       C  0.11036276  0.09545951  0.01951873    -0.12700
C3036       C  0.12695576  0.09507916  0.01093719     0.18100
C3037       C  0.14258972  0.09545049  0.02137406    -0.09800
C3038       C  0.14140634  0.09380287  0.04003701    -0.02700
H3039       H  0.09824487  0.09581679  0.01162657     0.04700
C3040       C  0.12743479  0.09070931  0.99125887     0.20100
H3041       H  0.15361805  0.09243119  0.04773873     0.09800
C3042       C  0.13324901  0.11693574  0.98004565    -0.16100
C3043       C  0.13298700  0.11329430  0.96140002     0.02800
C3044       C  0.12674471  0.08299314  0.95372161    -0.11400
C3045       C  0.12101286  0.05694329  0.96504457    -0.01500
C3046       C  0.12137402  0.06048298  0.98352413    -0.06600
H3047       H  0.13772117  0.14047514  0.98580676     0.05800
H3048       H  0.11638152  0.03332625  0.95947997     0.09200
Br3049     Br  0.16581729  0.09550279  0.01067812    -0.06300
Br3050     Br  0.08540573  0.09379359  0.04785646    -0.03300
Br3051     Br  0.14006706  0.15118538  0.94714482    -0.00400
Br3052     Br  0.11380331  0.02269970  0.99763147    -0.04800
C3053       C  0.13060345  0.87289956  0.87833115    -0.12200
C3054       C  0.13342952  0.85256720  0.86324317     0.03300
C3055       C  0.13386280  0.81741817  0.86504287    -0.12700
C3056       C  0.13170892  0.80215998  0.88176167     0.18100
C3057       C  0.12925455  0.82242982  0.89688759    -0.09800
C3058       C  0.12872016  0.85749126  0.89508722    -0.02700
H3059       H  0.13601414  0.80190731  0.85338783     0.04700
C3060       C  0.13169246  0.76504789  0.88309027     0.20100
H3061       H  0.12684114  0.87284480  0.90685142     0.09800
C3062       C  0.14791292  0.74730843  0.88278758    -0.16100
C3063       C  0.14814186  0.71195759  0.88318046     0.02800
C3064       C  0.13190313  0.69405788  0.88398582    -0.11400
C3065       C  0.11575291  0.71200471  0.88445187    -0.01500
C3066       C  0.11554115  0.74714296  0.88393201    -0.06600
H3067       H  0.16038123  0.76100338  0.88185175     0.05800
H3068       H  0.10317475  0.69855216  0.88484802     0.09200
Br3069     Br  0.12691561  0.80331405  0.92025308    -0.06300
Br3070     Br  0.13835548  0.87151684  0.84028778    -0.03300
Br3071     Br  0.17073693  0.68949317  0.88087001    -0.00400
Br3072     Br  0.09283388  0.76950935  0.88339066    -0.04800
C3073       C  0.12848484  0.19474297  0.87297279    -0.12200
C3074       C  0.14385471  0.21493104  0.87518878     0.03300
C3075       C  0.14232383  0.25016853  0.87476834    -0.12700
C3076       C  0.12575493  0.26576448  0.87183852     0.18100
C3077       C  0.11054766  0.24575230  0.86914830    -0.09800
C3078       C  0.11198058  0.21066609  0.86978445    -0.02700
H3079       H  0.15413932  0.26552498  0.87656044     0.04700
C3080       C  0.12455393  0.30293860  0.87193580     0.20100
H3081       H  0.10002426  0.19573182  0.86791833     0.09800
C3082       C  0.12508972  0.32086625  0.85580966    -0.16100
C3083       C  0.12483306  0.35623708  0.85565184     0.02800
C3084       C  0.12388204  0.37403322  0.87185193    -0.11400
C3085       C  0.12309310  0.35589408  0.88791750    -0.01500
C3086       C  0.12340678  0.32069922  0.88805838    -0.06600
H3087       H  0.12615580  0.30729563  0.84335900     0.05800
H3088       H  0.12242180  0.36922487  0.90047541     0.09200
Br3089     Br  0.08749848  0.26520651  0.86481206    -0.06300
Br3090     Br  0.16738887  0.19615982  0.87736157    -0.03300
Br3091     Br  0.12754621  0.37889529  0.83321518    -0.00400
Br3092     Br  0.12246697  0.29793418  0.91059908    -0.04800
C3093       C  0.13683861  0.94169985  0.70509438    -0.12200
C3094       C  0.12598780  0.96720260  0.71273351     0.03300
C3095       C  0.12639444  0.97275042  0.73116246    -0.12700
C3096       C  0.13719535  0.95314544  0.74235442     0.18100
C3097       C  0.14792911  0.92783337  0.73495848    -0.09800
C3098       C  0.14781861  0.92248835  0.71657566    -0.02700
H3099       H  0.11814648  0.99242151  0.73684678     0.04700
C3100       C  0.13731810  0.95972817  0.76171868     0.20100
H3101       H  0.15611408  0.90244834  0.71135636     0.09800
C3102       C  0.12645415  0.94055676  0.77300550    -0.16100
C3103       C  0.12632745  0.94614453  0.79143894     0.02800
C3104       C  0.13712046  0.97190532  0.79892020    -0.11400
C3105       C  0.14824559  0.99050264  0.78736201    -0.01500
C3106       C  0.14844833  0.98450912  0.76903706    -0.06600
H3107       H  0.11812159  0.92090949  0.76742570     0.05800
H3108       H  0.15671487  0.01035602  0.79248658     0.09200
Br3109     Br  0.16279442  0.89970613  0.74958413    -0.06300
Br3110     Br  0.11040623  0.99593531  0.69927644    -0.03300
Br3111     Br  0.11173710  0.91628487  0.80523241    -0.00400
Br3112     Br  0.16428097  0.01057480  0.75444105    -0.04800
C3113       C  0.88453911  0.84511520  0.04859316    -0.12200
C3114       C  0.87506437  0.81730601  0.04143562     0.03300
C3115       C  0.87433497  0.81258832  0.02292098    -0.12700
C3116       C  0.88296920  0.83498305  0.01134074     0.18100
C3117       C  0.89271911  0.86206163  0.01840462    -0.09800
C3118       C  0.89356947  0.86675446  0.03677832    -0.02700
H3119       H  0.86688120  0.79155978  0.01752266     0.04700
C3120       C  0.88113875  0.83135562  0.99185512     0.20100
H3121       H  0.90075664  0.88846743  0.04175984     0.09800
C3122       C  0.86662823  0.84682455  0.98330526    -0.16100
C3123       C  0.86620965  0.85005755  0.96474930     0.02800
C3124       C  0.88052421  0.83764300  0.95448016    -0.11400
C3125       C  0.89464620  0.82084345  0.96302909    -0.01500
C3126       C  0.89495879  0.81739285  0.98156459    -0.06600
H3127       H  0.85609030  0.85810941  0.99116309     0.05800
H3128       H  0.90570580  0.81116664  0.95528788     0.09200
Br3129     Br  0.90422050  0.89458191  0.00333512    -0.06300
Br3130     Br  0.86332145  0.78423895  0.05595422    -0.03300
Br3131     Br  0.84689012  0.87519431  0.95438079    -0.00400
Br3132     Br  0.91493381  0.79503344  0.99236867    -0.04800
C3133       C  0.95944256  0.93662601  0.88072191    -0.12200
C3134       C  0.97171159  0.92706305  0.89432198     0.03300
C3135       C  0.98979268  0.93537333  0.89273817    -0.12700
C3136       C  0.99617864  0.95312194  0.87796946     0.18100
C3137       C  0.98428070  0.96216216  0.86430775    -0.09800
C3138       C  0.96616400  0.95408529  0.86577451    -0.02700
H3139       H  0.99897308  0.92828334  0.90326687     0.04700
C3140       C  0.01528465  0.96236051  0.87735078     0.20100
H3141       H  0.95735678  0.96141695  0.85500301     0.09800
C3142       C  0.02807118  0.93733423  0.87399913    -0.16100
C3143       C  0.04633987  0.94487321  0.87423744     0.02800
C3144       C  0.05206544  0.97794810  0.87824435    -0.11400
C3145       C  0.03916210  0.00288233  0.88164390    -0.01500
C3146       C  0.02093351  0.99540537  0.88110371    -0.06600
H3147       H  0.02380068  0.91175134  0.87130879     0.05800
H3148       H  0.04327667  0.02844186  0.88462681     0.09200
Br3149     Br  0.99229338  0.98487449  0.84321432    -0.06300
Br3150     Br  0.96538267  0.90325388  0.91573178    -0.03300
Br3151     Br  0.06270561  0.90849850  0.87002383    -0.00400
Br3152     Br  0.00423068  0.03091192  0.88601411    -0.04800
C3153       C  0.88340731  0.34551432  0.95728692    -0.12200
C3154       C  0.86772032  0.35006788  0.96742195     0.03300
C3155       C  0.86816094  0.34546592  0.98589469    -0.12700
C3156       C  0.88402689  0.33641803  0.99456157     0.18100
C3157       C  0.89946120  0.33019713  0.98441396    -0.09800
C3158       C  0.89911169  0.33506560  0.96595288    -0.02700
H3159       H  0.85631233  0.35079465  0.99365136     0.04700
C3160       C  0.88489090  0.33884782  0.01417861     0.20100
H3161       H  0.91121911  0.33113247  0.95836435     0.09800
C3162       C  0.87656203  0.31463206  0.02499518    -0.16100
C3163       C  0.87660397  0.31786101  0.04363204     0.02800
C3164       C  0.88509023  0.34584616  0.05165274    -0.11400
C3165       C  0.89357985  0.36963244  0.04060686    -0.01500
C3166       C  0.89332035  0.36660323  0.02214287    -0.06600
H3167       H  0.86998409  0.29323851  0.01891333     0.05800
H3168       H  0.89985555  0.39171809  0.04629637     0.09200
Br3169     Br  0.92141783  0.31627661  0.99540764    -0.06300
Br3170     Br  0.84584817  0.36633648  0.95720112    -0.03300
Br3171     Br  0.86558971  0.28263190  0.05723415    -0.00400
Br3172     Br  0.90350897  0.40249989  0.00826141    -0.04800
C3173       C  0.87764465  0.72897265  0.87397597    -0.12200
C3174       C  0.87147115  0.71224637  0.85863823     0.03300
C3175       C  0.87233512  0.67704713  0.85765070    -0.12700
C3176       C  0.87950283  0.65805973  0.87172351     0.18100
C3177       C  0.88572617  0.67479584  0.88705621    -0.09800
C3178       C  0.88461058  0.71001822  0.88815528    -0.02700
H3179       H  0.86736663  0.66439778  0.84587961     0.04700
C3180       C  0.87965217  0.62079344  0.87045076     0.20100
H3181       H  0.88963144  0.72270099  0.89989522     0.09800
C3182       C  0.89568120  0.60361623  0.86706350    -0.16100
C3183       C  0.89619177  0.56823495  0.86638447     0.02800
C3184       C  0.88035640  0.54947806  0.86902719    -0.11400
C3185       C  0.86430767  0.56702880  0.87204007    -0.01500
C3186       C  0.86387097  0.60220681  0.87278938    -0.06600
H3187       H  0.90790534  0.61779960  0.86531007     0.05800
H3188       H  0.85200225  0.55326680  0.87414835     0.09200
Br3189     Br  0.89586671  0.65058075  0.90674831    -0.06300
Br3190     Br  0.86128921  0.73649816  0.83894843    -0.03300
Br3191     Br  0.91910381  0.54726070  0.86333361    -0.00400
Br3192     Br  0.84152361  0.62374245  0.87792858    -0.04800
C3193       C  0.88311590  0.05055625  0.88040501    -0.12200
C3194       C  0.88833909  0.07064520  0.86571584     0.03300
C3195       C  0.88833366  0.10581523  0.86719270    -0.12700
C3196       C  0.88306262  0.12152514  0.88300078     0.18100
C3197       C  0.87782784  0.10186049  0.89761579    -0.09800
C3198       C  0.87791811  0.06673305  0.89627523    -0.02700
H3199       H  0.89216941  0.12106778  0.85584298     0.04700
C3200       C  0.88267748  0.15856744  0.88386684     0.20100
H3201       H  0.87385431  0.05202454  0.90773887     0.09800
C3202       C  0.86724547  0.17574001  0.87841635    -0.16100
C3203       C  0.86661651  0.21096922  0.87861578     0.02800
C3204       C  0.88156318  0.22933829  0.88451433    -0.11400
C3205       C  0.89699955  0.21206383  0.88995704    -0.01500
C3206       C  0.89761758  0.17686291  0.88971898    -0.06600
H3207       H  0.85580978  0.16167822  0.87365930     0.05800
H3208       H  0.90866890  0.22604211  0.89420267     0.09200
Br3209     Br  0.87028720  0.12219053  0.91952404    -0.06300
Br3210     Br  0.89426074  0.05229149  0.84284918    -0.03300
Br3211     Br  0.84579409  0.23279868  0.86910539    -0.00400
Br3212     Br  0.91916217  0.15469111  0.89711782    -0.04800
C3213       C  0.95705879  0.44912513  0.88051640    -0.12200
C3214       C  0.96767474  0.45182346  0.89608763     0.03300
C3215       C  0.98576402  0.45966486  0.89463196    -0.12700
C3216       C  0.99355022  0.46560239  0.87801589     0.18100
C3217       C  0.98306061  0.46406174  0.86257060    -0.09800
C3218       C  0.96500715  0.45573284  0.86387461    -0.02700
H3219       H  0.99383842  0.46140779  0.90657658     0.04700
C3220       C  0.01266627  0.47366226  0.87720720     0.20100
H3221       H  0.95724331  0.45409743  0.85174056     0.09800
C3222       C  0.02466070  0.44947471  0.87076856    -0.16100
C3223       C  0.04302644  0.45558999  0.87091552     0.02800
C3224       C  0.04954862  0.48624661  0.87789119    -0.11400
C3225       C  0.03740742  0.51056655  0.88405733    -0.01500
C3226       C  0.01908615  0.50459735  0.88359988    -0.06600
H3227       H  0.01970757  0.42555054  0.86588962     0.05800
H3228       H  0.04218338  0.53449654  0.88910340     0.09200
Br3229     Br  0.99279019  0.47423810  0.83956540    -0.06300
Br3230     Br  0.95859694  0.44695319  0.91987270    -0.03300
Br3231     Br  0.05841691  0.42033493  0.86244767    -0.00400
Br3232     Br  0.00324244  0.53963995  0.89137405    -0.04800
C3233       C  0.88153094  0.59454289  0.55132686    -0.12200
C3234       C  0.89689573  0.59709722  0.54042405     0.03300
C3235       C  0.89506395  0.60081517  0.52201293    -0.12700
C3236       C  0.87820308  0.60208635  0.51398193     0.18100
C3237       C  0.86286910  0.60062093  0.52477585    -0.09800
C3238       C  0.86461249  0.59718468  0.54326553    -0.02700
H3239       H  0.90693601  0.60165543  0.51380272     0.04700
C3240       C  0.87712693  0.60115111  0.49429062     0.20100
H3241       H  0.85264117  0.59522540  0.55126810     0.09800
C3242       C  0.87054150  0.57191611  0.48616586    -0.16100
C3243       C  0.87140183  0.56784760  0.46773387     0.02800
C3244       C  0.87896790  0.59327797  0.45703330    -0.11400
C3245       C  0.88508428  0.62304187  0.46501750    -0.01500
C3246       C  0.88425092  0.62708515  0.48355600    -0.06600
H3247       H  0.86524891  0.55163691  0.49427488     0.05800
H3248       H  0.89090623  0.64275070  0.45688790     0.09200
Br3249     Br  0.83929364  0.60262256  0.51482944    -0.06300
Br3250     Br  0.92089456  0.59579098  0.54947730    -0.03300
Br3251     Br  0.86250842  0.52656816  0.45788056    -0.00400
Br3252     Br  0.89302789  0.66821908  0.49368704    -0.04800
C3253       C  0.04958892  0.44117957  0.62668983    -0.12200
C3254       C  0.04437987  0.47421634  0.63120936     0.03300
C3255       C  0.02623298  0.48255065  0.63170241    -0.12700
C3256       C  0.01316268  0.45843923  0.62759951     0.18100
C3257       C  0.01841942  0.42573508  0.62259198    -0.09800
C3258       C  0.03649768  0.41732588  0.62227190    -0.02700
H3259       H  0.02229277  0.50808087  0.63498704     0.04700
C3260       C  0.99422060  0.46859519  0.62720042     0.20100
H3261       H  0.04036018  0.39198155  0.61851574     0.09800
C3262       C  0.98850965  0.49074094  0.61387054    -0.16100
C3263       C  0.97061427  0.50029969  0.61244336     0.02800
C3264       C  0.95783490  0.48731066  0.62464699    -0.11400
C3265       C  0.96386456  0.46548987  0.63824415    -0.01500
C3266       C  0.98184011  0.45634023  0.63965248    -0.06600
H3267       H  0.99809758  0.50050764  0.60438252     0.05800
H3268       H  0.95460924  0.45544048  0.64794907     0.09200
Br3269     Br  0.00152877  0.39220148  0.61517847    -0.06300
Br3270     Br  0.06148126  0.50945964  0.63519275    -0.03300
Br3271     Br  0.96538644  0.53169518  0.59360320    -0.00400
Br3272     Br  0.98898480  0.42793856  0.65912287    -0.04800
C3273       C  0.87551316  0.43427886  0.79714574    -0.12200
C3274       C  0.86908544  0.41140428  0.78413702     0.03300
C3275       C  0.86947513  0.42008682  0.76609765    -0.12700
C3276       C  0.87610609  0.45125383  0.76047892     0.18100
C3277       C  0.88232761  0.47433689  0.77326337    -0.09800
C3278       C  0.88221799  0.46561271  0.79137777    -0.02700
H3279       H  0.86460739  0.40227446  0.75631150     0.04700
C3280       C  0.87575635  0.45935619  0.74122911     0.20100
H3281       H  0.88705302  0.48371955  0.80101705     0.09800
C3282       C  0.85938204  0.46679592  0.73314533    -0.16100
C3283       C  0.85828290  0.47411471  0.71494508     0.02800
C3284       C  0.87394479  0.47426720  0.70433800    -0.11400
C3285       C  0.89028662  0.46555738  0.71248958    -0.01500
C3286       C  0.89124725  0.45801911  0.73070997    -0.06600
H3287       H  0.84732706  0.46688266  0.74109724     0.05800
H3288       H  0.90248510  0.46521430  0.70477682     0.09200
Br3289     Br  0.89028306  0.51854033  0.76660298    -0.06300
Br3290     Br  0.86033721  0.36712723  0.78952914    -0.03300
Br3291     Br  0.83473980  0.48232491  0.70568429    -0.00400
Br3292     Br  0.91388815  0.44536543  0.74066436    -0.04800
C3293       C  0.88412910  0.08113772  0.54891913    -0.12200
C3294       C  0.88956052  0.05664067  0.53638399     0.03300
C3295       C  0.88874580  0.06374952  0.51817166    -0.12700
C3296       C  0.88229534  0.09474964  0.51196412     0.18100
C3297       C  0.87626151  0.11884025  0.52427960    -0.09800
C3298       C  0.87724994  0.11199615  0.54260738    -0.02700
H3299       H  0.89293805  0.04471936  0.50872380     0.04700
C3300       C  0.88157251  0.10044360  0.49249850     0.20100
H3301       H  0.87279060  0.13097420  0.55195066     0.09800
C3302       C  0.86627027  0.09073172  0.48311444    -0.16100
C3303       C  0.86619925  0.08976257  0.46448274     0.02800
C3304       C  0.88171519  0.09877360  0.45486596    -0.11400
C3305       C  0.89679241  0.10985762  0.46435153    -0.01500
C3306       C  0.89677235  0.11085856  0.48300031    -0.06600
H3307       H  0.85463265  0.08212236  0.49035758     0.05800
H3308       H  0.90882532  0.11675955  0.45724897     0.09200
Br3309     Br  0.86662828  0.16120222  0.51655203    -0.06300
Br3310     Br  0.89675308  0.01190703  0.54298446    -0.03300
Br3311     Br  0.84530371  0.07151594  0.45327943    -0.00400
Br3312     Br  0.91801413  0.12510355  0.49508628    -0.04800
C3313       C  0.88337838  0.70079606  0.63159258    -0.12200
C3314       C  0.89963724  0.71850750  0.63362065     0.03300
C3315       C  0.89956113  0.75361485  0.63497889    -0.12700
C3316       C  0.88356054  0.77180200  0.63440536     0.18100
C3317       C  0.86735353  0.75441217  0.63198996    -0.09800
C3318       C  0.86736692  0.71919337  0.63058982    -0.02700
H3319       H  0.91211330  0.76691482  0.63637177     0.04700
C3320       C  0.88439164  0.80901219  0.63507365     0.20100
H3321       H  0.85478111  0.70611574  0.62898056     0.09800
C3322       C  0.89188903  0.82623585  0.62059771    -0.16100
C3323       C  0.89302333  0.86136122  0.62055646     0.02800
C3324       C  0.88655973  0.87986884  0.63514280    -0.11400
C3325       C  0.87970974  0.86270550  0.64998166    -0.01500
C3326       C  0.87864900  0.82739378  0.65006075    -0.06600
H3327       H  0.89680076  0.81225631  0.60923619     0.05800
H3328       H  0.87482180  0.87678821  0.66131511     0.09200
Br3329     Br  0.84497786  0.77766964  0.63003553    -0.06300
Br3330     Br  0.92255533  0.69684484  0.63358586    -0.03300
Br3331     Br  0.90398212  0.88309201  0.60050885    -0.00400
Br3332     Br  0.86960307  0.80531473  0.67092604    -0.04800
C3333       C  0.88343122  0.20026452  0.62269697    -0.12200
C3334       C  0.89896682  0.22032354  0.62426173     0.03300
C3335       C  0.89757961  0.25538177  0.62409494    -0.12700
C3336       C  0.88097576  0.27123640  0.62250544     0.18100
C3337       C  0.86552661  0.25150786  0.62022892    -0.09800
C3338       C  0.86684981  0.21630620  0.62032566    -0.02700
H3339       H  0.90956560  0.27048479  0.62531444     0.04700
C3340       C  0.88027688  0.30840265  0.62300033     0.20100
H3341       H  0.85478725  0.20145176  0.61907297     0.09800
C3342       C  0.87574375  0.32610068  0.60751270    -0.16100
C3343       C  0.87579348  0.36132611  0.60718489     0.02800
C3344       C  0.88019888  0.37958324  0.62278329    -0.11400
C3345       C  0.88504817  0.36158677  0.63818743    -0.01500
C3346       C  0.88522406  0.32638605  0.63836633    -0.06600
H3347       H  0.87253993  0.31235367  0.59547604     0.05800
H3348       H  0.88854113  0.37491377  0.65027024     0.09200
Br3349     Br  0.84229376  0.27136666  0.61769919    -0.06300
Br3350     Br  0.92264229  0.20206006  0.62597455    -0.03300
Br3351     Br  0.87111362  0.38214626  0.58455672    -0.00400
Br3352     Br  0.89205542  0.30411621  0.66004182    -0.04800
C3353       C  0.96130058  0.98213224  0.62455747    -0.12200
C3354       C  0.97133256  0.97880262  0.60865859     0.03300
C3355       C  0.98938062  0.97008631  0.60947533    -0.12700
C3356       C  0.99778364  0.96409878  0.62579488     0.18100
C3357       C  0.98790906  0.96660269  0.64161307    -0.09800
C3358       C  0.96984738  0.97557771  0.64092225    -0.02700
H3359       H  0.99691824  0.96757478  0.59724676     0.04700
C3360       C  0.01678577  0.95444420  0.62583341     0.20100
H3361       H  0.96254470  0.97783332  0.65329197     0.09800
C3362       C  0.02983354  0.97915202  0.62874352    -0.16100
C3363       C  0.04799570  0.97106380  0.62773930     0.02800
C3364       C  0.05324030  0.93762607  0.62401009    -0.11400
C3365       C  0.04011986  0.91310056  0.62090743    -0.01500
C3366       C  0.02201639  0.92130313  0.62175354    -0.06600
H3367       H  0.02585715  0.00493508  0.63137588     0.05800
H3368       H  0.04396247  0.88735413  0.61798733     0.09200
Br3369     Br  0.99850612  0.95737168  0.66435515    -0.06300
Br3370     Br  0.96143709  0.98370290  0.58522190    -0.03300
Br3371     Br  0.06499781  0.00708323  0.62993198    -0.00400
Br3372     Br  0.00485625  0.88648440  0.61727731    -0.04800
C3373       C  0.87540638  0.95525033  0.80105011    -0.12200
C3374       C  0.85995692  0.95700399  0.79015640     0.03300
C3375       C  0.86159194  0.96394832  0.77194341    -0.12700
C3376       C  0.87831820  0.96962323  0.76422359     0.18100
C3377       C  0.89362286  0.96935594  0.77505266    -0.09800
C3378       C  0.89210498  0.96218036  0.79323981    -0.02700
H3379       H  0.84971306  0.96496279  0.76371393     0.04700
C3380       C  0.87940852  0.97649397  0.74489868     0.20100
H3381       H  0.90417589  0.96103572  0.80116379     0.09800
C3382       C  0.87993377  0.00997560  0.73897972    -0.16100
C3383       C  0.88019292  0.01748610  0.72078537     0.02800
C3384       C  0.87984082  0.99122158  0.70814658    -0.11400
C3385       C  0.87982017  0.95764972  0.71407936    -0.01500
C3386       C  0.87947033  0.95017501  0.73233174    -0.06600
H3387       H  0.88011015  0.03033668  0.74856995     0.05800
H3388       H  0.87971109  0.93725797  0.70450936     0.09200
Br3389     Br  0.91691415  0.97764273  0.76543816    -0.06300
Br3390     Br  0.83612449  0.95161091  0.79912708    -0.03300
Br3391     Br  0.88203217  0.06398612  0.71393556    -0.00400
Br3392     Br  0.87896780  0.90380103  0.73957846    -0.04800
C3393       C  0.38569230  0.84271743  0.54834381    -0.12200
C3394       C  0.40133712  0.84621460  0.53787910     0.03300
C3395       C  0.40001259  0.85024967  0.51939054    -0.12700
C3396       C  0.38338053  0.85096761  0.51089916     0.18100
C3397       C  0.36779069  0.84940168  0.52125166    -0.09800
C3398       C  0.36899963  0.84555738  0.53978709    -0.02700
H3399       H  0.41207893  0.85140276  0.51147981     0.04700
C3400       C  0.38264936  0.84766028  0.49127183     0.20100
H3401       H  0.35679802  0.84309242  0.54739100     0.09800
C3402       C  0.38203618  0.81514020  0.48414950    -0.16100
C3403       C  0.38195736  0.81003350  0.46578101     0.02800
C3404       C  0.38249546  0.83782186  0.45400642    -0.11400
C3405       C  0.38266132  0.87059218  0.46111456    -0.01500
C3406       C  0.38290407  0.87561846  0.47966369    -0.06600
H3407       H  0.38169013  0.79351181  0.49298916     0.05800
H3408       H  0.38310517  0.89218102  0.45226915     0.09200
Br3409     Br  0.34463384  0.85054757  0.51034832    -0.06300
Br3410     Br  0.42502902  0.84543446  0.54766755    -0.03300
Br3411     Br  0.38037137  0.76435096  0.45761965    -0.00400
Br3412     Br  0.38391963  0.92071898  0.48868764    -0.04800
C3413       C  0.30426434  0.83405561  0.63121804    -0.12200
C3414       C  0.29419847  0.82191017  0.61671361     0.03300
C3415       C  0.27558957  0.82249820  0.61738923    -0.12700
C3416       C  0.26656902  0.83550070  0.63220579     0.18100
C3417       C  0.27660106  0.84766682  0.64675925    -0.09800
C3418       C  0.29529707  0.84665922  0.64619993    -0.02700
H3419       H  0.26806129  0.81221249  0.60634218     0.04700
C3420       C  0.24675494  0.83551011  0.63210296     0.20100
H3421       H  0.30287275  0.85542560  0.65757750     0.09800
C3422       C  0.23734475  0.81753633  0.64523254    -0.16100
C3423       C  0.21864292  0.81707927  0.64531704     0.02800
C3424       C  0.20910204  0.83383091  0.63178685    -0.11400
C3425       C  0.21847357  0.85075314  0.61834029    -0.01500
C3426       C  0.23710308  0.85208199  0.61851154    -0.06600
H3427       H  0.24456947  0.80395683  0.65549126     0.05800
H3428       H  0.21122773  0.86449353  0.60814100     0.09200
Br3429     Br  0.26552685  0.86611451  0.66760708    -0.06300
Br3430     Br  0.30497253  0.80116628  0.59630612    -0.03300
Br3431     Br  0.20664410  0.79277767  0.66386619    -0.00400
Br3432     Br  0.24858659  0.87897402  0.60058427    -0.04800
C3433       C  0.38253065  0.32634967  0.55016084    -0.12200
C3434       C  0.38847623  0.30155480  0.53804494     0.03300
C3435       C  0.38855099  0.30831122  0.51977310    -0.12700
C3436       C  0.38250586  0.33927987  0.51308491     0.18100
C3437       C  0.37605818  0.36373762  0.52501618    -0.09800
C3438       C  0.37609832  0.35717442  0.54339530    -0.02700
H3439       H  0.39303259  0.28896859  0.51064137     0.04700
C3440       C  0.38222701  0.34428426  0.49351871     0.20100
H3441       H  0.37137127  0.37643697  0.55244317     0.09800
C3442       C  0.36613971  0.33996660  0.48427579    -0.16100
C3443       C  0.36578661  0.33842289  0.46563079     0.02800
C3444       C  0.38179838  0.34189766  0.45580127    -0.11400
C3445       C  0.39778666  0.34763524  0.46517905    -0.01500
C3446       C  0.39810512  0.34868679  0.48381695    -0.06600
H3447       H  0.35392759  0.33576969  0.49166209     0.05800
H3448       H  0.41023594  0.35019266  0.45798641     0.09200
Br3449     Br  0.36754197  0.40660958  0.51677544    -0.06300
Br3450     Br  0.39514067  0.25687475  0.54531825    -0.03300
Br3451     Br  0.34342206  0.32673637  0.45485115    -0.00400
Br3452     Br  0.42062711  0.35489581  0.49553277    -0.04800
C3453       C  0.37800694  0.44594643  0.62343985    -0.12200
C3454       C  0.36234385  0.46557406  0.62176793     0.03300
C3455       C  0.36352832  0.50093192  0.62167931    -0.12700
C3456       C  0.38013680  0.51711678  0.62303575     0.18100
C3457       C  0.39574426  0.49758015  0.62417188    -0.09800
C3458       C  0.39459275  0.46244020  0.62444513    -0.02700
H3459       H  0.35144595  0.51587328  0.62079639     0.04700
C3460       C  0.38109705  0.55436559  0.62363981     0.20100
H3461       H  0.40678322  0.44787203  0.62562154     0.09800
C3462       C  0.37782040  0.57115720  0.63974156    -0.16100
C3463       C  0.37923160  0.60635788  0.64084735     0.02800
C3464       C  0.38415424  0.62518714  0.62570941    -0.11400
C3465       C  0.38730929  0.60829416  0.60960284    -0.01500
C3466       C  0.38584286  0.57320792  0.60848934    -0.06600
H3467       H  0.37401728  0.55683936  0.65143167     0.05800
H3468       H  0.39073715  0.62254331  0.59776873     0.09200
Br3469     Br  0.41891299  0.51793885  0.62583773    -0.06300
Br3470     Br  0.33900183  0.44572923  0.62093769    -0.03300
Br3471     Br  0.37274984  0.62779825  0.66276050    -0.00400
Br3472     Br  0.39004210  0.55206120  0.58594241    -0.04800
C3473       C  0.38028295  0.12528343  0.63702448    -0.12200
C3474       C  0.39391433  0.10541401  0.62959305     0.03300
C3475       C  0.39187646  0.07041304  0.62860482    -0.12700
C3476       C  0.37636078  0.05466974  0.63494599     0.18100
C3477       C  0.36296889  0.07443848  0.64297769    -0.09800
C3478       C  0.36491206  0.10953412  0.64372620    -0.02700
H3479       H  0.40234256  0.05539600  0.62260883     0.04700
C3480       C  0.37477265  0.01757366  0.63334143     0.20100
H3481       H  0.35422739  0.12469195  0.64923049     0.09800
C3482       C  0.37564292  0.99776302  0.64874933    -0.16100
C3483       C  0.37599929  0.96258803  0.64771500     0.02800
C3484       C  0.37578856  0.94645477  0.63093459    -0.11400
C3485       C  0.37412085  0.96635005  0.61552006    -0.01500
C3486       C  0.37361520  0.00163381  0.61662187    -0.06600
H3487       H  0.37632012  0.00978241  0.66166994     0.05800
H3488       H  0.37371224  0.95449618  0.60254915     0.09200
Br3489     Br  0.34151725  0.05494944  0.65239028    -0.06300
Br3490     Br  0.41489797  0.12513743  0.61938125    -0.03300
Br3491     Br  0.37597325  0.93824372  0.66981787    -0.00400
Br3492     Br  0.37123496  0.02708804  0.59499489    -0.04800
C3493       C  0.20508792  0.33205133  0.62900159    -0.12200
C3494       C  0.21496239  0.34630699  0.61488744     0.03300
C3495       C  0.23358955  0.34423708  0.61494076    -0.12700
C3496       C  0.24269471  0.32775368  0.62876918     0.18100
C3497       C  0.23279610  0.31245444  0.64254819    -0.09800
C3498       C  0.21414976  0.31504614  0.64268644    -0.02700
H3499       H  0.24105435  0.35641690  0.60439348     0.04700
C3500       C  0.26247792  0.32861886  0.62908261     0.20100
H3501       H  0.20670459  0.30406786  0.65360554     0.09800
C3502       C  0.27122526  0.34541664  0.64302477    -0.16100
C3503       C  0.28988128  0.34637178  0.64392205     0.02800
C3504       C  0.30012422  0.33123087  0.63040682    -0.11400
C3505       C  0.29136343  0.31560276  0.61609817    -0.01500
C3506       C  0.27272039  0.31376435  0.61548009    -0.06600
H3507       H  0.26348120  0.35749828  0.65337849     0.05800
H3508       H  0.29907576  0.30306447  0.60586669     0.09200
Br3509     Br  0.24412222  0.28748081  0.66133066    -0.06300
Br3510     Br  0.20389259  0.37165962  0.59606018    -0.03300
Br3511     Br  0.30069851  0.36910973  0.66367979    -0.00400
Br3512     Br  0.26195425  0.28808131  0.59669953    -0.04800
C3513       C  0.38164651  0.58621661  0.95265958    -0.12200
C3514       C  0.36604022  0.59095614  0.96294872     0.03300
C3515       C  0.36681615  0.58761725  0.98148255    -0.12700
C3516       C  0.38287699  0.57961168  0.99005432     0.18100
C3517       C  0.39811251  0.57257289  0.97980391    -0.09800
C3518       C  0.39743982  0.57604632  0.96128095    -0.02700
H3519       H  0.35507642  0.59327782  0.98933929     0.04700
C3520       C  0.38404904  0.58371446  0.00955460     0.20100
H3521       H  0.40948050  0.57183932  0.95362819     0.09800
C3522       C  0.37743587  0.55869102  0.02100284    -0.16100
C3523       C  0.37772908  0.56319746  0.03954464     0.02800
C3524       C  0.38456616  0.59342712  0.04680165    -0.11400
C3525       C  0.39130507  0.61813149  0.03515608    -0.01500
C3526       C  0.39104359  0.61357245  0.01677951    -0.06600
H3527       H  0.37207898  0.53559633  0.01549128     0.05800
H3528       H  0.39642178  0.64170582  0.04032918     0.09200
Br3529     Br  0.42029902  0.55983714  0.99067700    -0.06300
Br3530     Br  0.34380875  0.60608880  0.95301619    -0.03300
Br3531     Br  0.36957092  0.52657721  0.05412259    -0.00400
Br3532     Br  0.39974968  0.64960732  0.00204799    -0.04800
C3533       C  0.30002391  0.60080848  0.87237860    -0.12200
C3534       C  0.29019527  0.62245403  0.88354719     0.03300
C3535       C  0.27166190  0.61967862  0.88438160    -0.12700
C3536       C  0.26268710  0.59526679  0.87438030     0.18100
C3537       C  0.27252248  0.57316813  0.86345325    -0.09800
C3538       C  0.29109790  0.57632253  0.86236023    -0.02700
H3539       H  0.26417735  0.63690791  0.89270189     0.04700
C3540       C  0.24301946  0.59430395  0.87490842     0.20100
H3541       H  0.29858834  0.55951589  0.85381516     0.09800
C3542       C  0.23340907  0.60370846  0.85966406    -0.16100
C3543       C  0.21479613  0.60185547  0.85934445     0.02800
C3544       C  0.20551650  0.59042619  0.87451300    -0.11400
C3545       C  0.21512329  0.58293343  0.89010328    -0.01500
C3546       C  0.23374650  0.58470542  0.89038886    -0.06600
H3547       H  0.24046133  0.61218613  0.84789690     0.05800
H3548       H  0.20819625  0.57396758  0.90184488     0.09200
Br3549     Br  0.26120409  0.53758018  0.85039813    -0.06300
Br3550     Br  0.30128553  0.65708528  0.89747218    -0.03300
Br3551     Br  0.20277010  0.61622211  0.83807237    -0.00400
Br3552     Br  0.24592324  0.57154021  0.91180273    -0.04800
C3553       C  0.37810683  0.72832186  0.70374505    -0.12200
C3554       C  0.38818179  0.70191041  0.71152982     0.03300
C3555       C  0.38814728  0.69743841  0.73006953    -0.12700
C3556       C  0.37780435  0.71809496  0.74120206     0.18100
C3557       C  0.36763176  0.74415348  0.73348012    -0.09800
C3558       C  0.36795605  0.74915081  0.71506907    -0.02700
H3559       H  0.39599242  0.67720509  0.73583860     0.04700
C3560       C  0.37725920  0.71137712  0.76068897     0.20100
H3561       H  0.36014437  0.76972850  0.70961934     0.09800
C3562       C  0.38261084  0.73651007  0.77276651    -0.16100
C3563       C  0.38170217  0.73115484  0.79122078     0.02800
C3564       C  0.37562265  0.69994627  0.79787667    -0.11400
C3565       C  0.37028894  0.67492984  0.78577748    -0.01500
C3566       C  0.37105467  0.68033026  0.76741421    -0.06600
H3567       H  0.38734287  0.76055495  0.76780283     0.05800
H3568       H  0.36563642  0.65074201  0.79064072     0.09200
Br3569     Br  0.35230570  0.77275910  0.74728362    -0.06300
Br3570     Br  0.40126374  0.66951508  0.69786415    -0.03300
Br3571     Br  0.38773229  0.76792953  0.80664601    -0.00400
Br3572     Br  0.36279617  0.64472738  0.75221246    -0.04800
C3573       C  0.38705796  0.09242032  0.95611019    -0.12200
C3574       C  0.37903390  0.06395737  0.96416023     0.03300
C3575       C  0.37887071  0.06086028  0.98278318    -0.12700
C3576       C  0.38692311  0.08533967  0.99358016     0.18100
C3577       C  0.39559948  0.11284943  0.98558739    -0.09800
C3578       C  0.39554359  0.11627483  0.96709649    -0.02700
H3579       H  0.37242953  0.03930104  0.98888151     0.04700
C3580       C  0.38551634  0.08306284  0.01317107     0.20100
H3581       H  0.40187862  0.13826565  0.96131946     0.09800
C3582       C  0.40012652  0.07154658  0.02319009    -0.16100
C3583       C  0.40005165  0.07375421  0.04181150     0.02800
C3584       C  0.38509551  0.08738996  0.05064652    -0.11400
C3585       C  0.37010975  0.09703846  0.04060047    -0.01500
C3586       C  0.37032071  0.09537669  0.02201197    -0.06600
H3587       H  0.41185238  0.06194076  0.01646688     0.05800
H3588       H  0.35861897  0.10799593  0.04715852     0.09200
Br3589     Br  0.40722680  0.14702073  0.99945274    -0.06300
Br3590     Br  0.36918082  0.02751437  0.95059808    -0.03300
Br3591     Br  0.42060706  0.05777436  0.05455016    -0.00400
Br3592     Br  0.35025730  0.11317826  0.00915368    -0.04800
C3593       C  0.37647364  0.98175488  0.87605662    -0.12200
C3594       C  0.37214491  0.96455672  0.86020871     0.03300
C3595       C  0.37275186  0.92935902  0.85975052    -0.12700
C3596       C  0.37776789  0.91091174  0.87485967     0.18100
C3597       C  0.38212021  0.92800066  0.89068904    -0.09800
C3598       C  0.38121107  0.96320829  0.89126412    -0.02700
H3599       H  0.36932655  0.91629961  0.84756403     0.04700
C3600       C  0.37845736  0.87383750  0.87384961     0.20100
H3601       H  0.38491868  0.97619295  0.90339097     0.09800
C3602       C  0.39231777  0.85823220  0.86446696    -0.16100
C3603       C  0.39371591  0.82301788  0.86377034     0.02800
C3604       C  0.38110296  0.80272243  0.87288667    -0.11400
C3605       C  0.36686079  0.81896330  0.88170469    -0.01500
C3606       C  0.36541272  0.85396349  0.88211914    -0.06600
H3607       H  0.40220581  0.87361104  0.85777399     0.05800
H3608       H  0.35659300  0.80446181  0.88835184     0.09200
Br3609     Br  0.39039932  0.90432130  0.91142871    -0.06300
Br3610     Br  0.36482229  0.98784665  0.83898838    -0.03300
Br3611     Br  0.41322427  0.80537193  0.85019974    -0.00400
Br3612     Br  0.34513945  0.87347463  0.89384043    -0.04800
C3613       C  0.37879521  0.30179713  0.87330730    -0.12200
C3614       C  0.36279765  0.31877276  0.86906513     0.03300
C3615       C  0.36227336  0.35398153  0.86927180    -0.12700
C3616       C  0.37746061  0.37255287  0.87388761     0.18100
C3617       C  0.39343307  0.35566915  0.87814245    -0.09800
C3618       C  0.39408036  0.32045836  0.87759537    -0.02700
H3619       H  0.34998825  0.36693765  0.86587314     0.04700
C3620       C  0.37647440  0.40958997  0.87396259     0.20100
H3621       H  0.40634679  0.30758516  0.88114758     0.09800
C3622       C  0.37009918  0.42625381  0.88908730    -0.16100
C3623       C  0.36963872  0.46153162  0.88980322     0.02800
C3624       C  0.37526337  0.48067666  0.87488876    -0.11400
C3625       C  0.38139160  0.46345867  0.85967629    -0.01500
C3626       C  0.38218042  0.42836034  0.85920350    -0.06600
H3627       H  0.36592674  0.41170161  0.90057234     0.05800
H3628       H  0.38583066  0.47732752  0.84806287     0.09200
Br3629     Br  0.41436042  0.37977780  0.88546657    -0.06300
Br3630     Br  0.34148730  0.29507073  0.86245575    -0.03300
Br3631     Br  0.36265356  0.48124422  0.91205903    -0.00400
Br3632     Br  0.39152837  0.40705167  0.83827546    -0.04800
C3633       C  0.30261562  0.08882162  0.87519259    -0.12200
C3634       C  0.29235140  0.10161605  0.88938483     0.03300
C3635       C  0.27372449  0.10005525  0.88864913    -0.12700
C3636       C  0.26496240  0.08589622  0.87394589     0.18100
C3637       C  0.27521462  0.07276597  0.85983430    -0.09800
C3638       C  0.29387313  0.07446471  0.86051557    -0.02700
H3639       H  0.26598777  0.11077286  0.89941971     0.04700
C3640       C  0.24516404  0.08584175  0.87351279     0.20100
H3641       H  0.30159572  0.06510032  0.84938726     0.09800
C3642       C  0.23605768  0.10438471  0.86034190    -0.16100
C3643       C  0.21735311  0.10430677  0.85951595     0.02800
C3644       C  0.20750261  0.08616570  0.87226822    -0.11400
C3645       C  0.21658865  0.06871946  0.88578833    -0.01500
C3646       C  0.23522508  0.06812264  0.88639349    -0.06600
H3647       H  0.24353896  0.11869574  0.85058463     0.05800
H3648       H  0.20914161  0.05409122  0.89545244     0.09200
Br3649     Br  0.26442532  0.05219660  0.83939312    -0.06300
Br3650     Br  0.30288390  0.12492024  0.90915958    -0.03300
Br3651     Br  0.20580886  0.12981178  0.84109392    -0.00400
Br3652     Br  0.24641602  0.04066420  0.90429423    -0.04800
C3653       C  0.37139423  0.20046502  0.80098158    -0.12200
C3654       C  0.37777842  0.23142195  0.79425655     0.03300
C3655       C  0.37810222  0.23698651  0.77583225    -0.12700
C3656       C  0.37175586  0.21243108  0.76394223     0.18100
C3657       C  0.36495333  0.18194939  0.77072052    -0.09800
C3658       C  0.36483845  0.17623555  0.78903151    -0.02700
H3659       H  0.38315490  0.26071064  0.77074976     0.04700
C3660       C  0.37196866  0.21906644  0.74455358     0.20100
H3661       H  0.35987645  0.15230030  0.79392793     0.09800
C3662       C  0.38181058  0.19781015  0.73331784    -0.16100
C3663       C  0.38143881  0.20206824  0.71482285     0.02800
C3664       C  0.37168287  0.22911207  0.70728230    -0.11400
C3665       C  0.36184828  0.25029366  0.71865757    -0.01500
C3666       C  0.36179875  0.24531948  0.73705060    -0.06600
H3667       H  0.38945459  0.17718202  0.73896867     0.05800
H3668       H  0.35422417  0.27119089  0.71327670     0.09200
Br3669     Br  0.35524415  0.14749406  0.75562231    -0.06300
Br3670     Br  0.38494711  0.26772462  0.80953317    -0.03300
Br3671     Br  0.39322698  0.16833969  0.70078470    -0.00400
Br3672     Br  0.34699894  0.27427636  0.75121082    -0.04800
C3673       C  0.62674933  0.59225585  0.54951168    -0.12200
C3674       C  0.61335924  0.60429212  0.53760376     0.03300
C3675       C  0.61513187  0.59945663  0.51925581    -0.12700
C3676       C  0.62964425  0.58197178  0.51207222     0.18100
C3677       C  0.64257608  0.56859003  0.52372412    -0.09800
C3678       C  0.64113643  0.57391277  0.54217314    -0.02700
H3679       H  0.60508464  0.60982520  0.51040095     0.04700
C3680       C  0.63131911  0.58028951  0.49233862     0.20100
H3681       H  0.65144129  0.56373516  0.55076341     0.09800
C3682       C  0.64515711  0.59805949  0.48394569    -0.16100
C3683       C  0.64528951  0.60259179  0.46543175     0.02800
C3684       C  0.63122313  0.58969692  0.45494732    -0.11400
C3685       C  0.61782770  0.57057260  0.46323475    -0.01500
C3686       C  0.61793461  0.56541852  0.48171918    -0.06600
H3687       H  0.65542736  0.60993940  0.49192049     0.05800
H3688       H  0.60706312  0.56014237  0.45534102     0.09200
Br3689     Br  0.66206109  0.54195309  0.51502414    -0.06300
Br3690     Br  0.59194180  0.62739251  0.54467400    -0.03300
Br3691     Br  0.66397074  0.62973872  0.45543388    -0.00400
Br3692     Br  0.59947962  0.53810086  0.49196531    -0.04800
C3693       C  0.70657918  0.57896957  0.63291670    -0.12200
C3694       C  0.71684846  0.56571589  0.64700836     0.03300
C3695       C  0.73550896  0.56746100  0.64627771    -0.12700
C3696       C  0.74417168  0.58380464  0.63207434     0.18100
C3697       C  0.73382826  0.59632012  0.61780461    -0.09800
C3698       C  0.71527657  0.59322278  0.61819484    -0.02700
H3699       H  0.74328715  0.55690607  0.65710835     0.04700
C3700       C  0.76392054  0.58727150  0.63229498     0.20100
H3701       H  0.70752222  0.60434410  0.60749091     0.09800
C3702       C  0.77384173  0.57399289  0.61814428    -0.16100
C3703       C  0.79244779  0.57581578  0.61800985     0.02800
C3704       C  0.80163680  0.58985466  0.63263191    -0.11400
C3705       C  0.79177408  0.60333649  0.64680243    -0.01500
C3706       C  0.77304878  0.60285060  0.64653940    -0.06600
H3707       H  0.76706718  0.56161633  0.60721637     0.05800
H3708       H  0.79865929  0.61412838  0.65812356     0.09200
Br3709     Br  0.74400114  0.62106183  0.59830602    -0.06300
Br3710     Br  0.70603716  0.54554075  0.66756815    -0.03300
Br3711     Br  0.80453576  0.55621571  0.59803201    -0.00400
Br3712     Br  0.76058519  0.62466551  0.66563582    -0.04800
C3713       C  0.46150195  0.73670405  0.62295166    -0.12200
C3714       C  0.47197739  0.73280902  0.60742963     0.03300
C3715       C  0.49013118  0.72525448  0.60893693    -0.12700
C3716       C  0.49820997  0.72148201  0.62563884     0.18100
C3717       C  0.48795500  0.72573758  0.64111819    -0.09800
C3718       C  0.46974842  0.73307629  0.63969442    -0.02700
H3719       H  0.49800120  0.72189980  0.59697831     0.04700
C3720       C  0.51725366  0.71218034  0.62649616     0.20100
H3721       H  0.46204840  0.73627908  0.65176693     0.09800
C3722       C  0.52988653  0.73612820  0.63196915    -0.16100
C3723       C  0.54812319  0.72834152  0.63208818     0.02800
C3724       C  0.55385682  0.69613144  0.62656954    -0.11400
C3725       C  0.54114478  0.67231031  0.62110947    -0.01500
C3726       C  0.52299093  0.68000367  0.62112991    -0.06600
H3727       H  0.52554776  0.76110652  0.63586975     0.05800
H3728       H  0.54534750  0.64736105  0.61699498     0.09200
Br3729     Br  0.49815665  0.72091883  0.66442376    -0.06300
Br3730     Br  0.46241560  0.73552686  0.58374003    -0.03300
Br3731     Br  0.56458286  0.76327970  0.63862033    -0.00400
Br3732     Br  0.50651979  0.64541076  0.61415345    -0.04800
C3733       C  0.63007346  0.09344253  0.55073020    -0.12200
C3734       C  0.64464682  0.10595425  0.54078111     0.03300
C3735       C  0.64468495  0.10300113  0.52220403    -0.12700
C3736       C  0.63048818  0.08745283  0.51327800     0.18100
C3737       C  0.61637958  0.07353860  0.52321551    -0.09800
C3738       C  0.61615519  0.07691796  0.54176093    -0.02700
H3739       H  0.65549299  0.11407750  0.51462296     0.04700
C3740       C  0.62952963  0.08973406  0.49364062     0.20100
H3741       H  0.60497704  0.06686643  0.54920210     0.09800
C3742       C  0.63912757  0.06719596  0.48295382    -0.16100
C3743       C  0.63859785  0.06967259  0.46428222     0.02800
C3744       C  0.62787432  0.09467782  0.45597346    -0.11400
C3745       C  0.61844521  0.11727999  0.46700207    -0.01500
C3746       C  0.61944486  0.11532588  0.48551825    -0.06600
H3747       H  0.64720677  0.04779962  0.48918401     0.05800
H3748       H  0.61061650  0.13753889  0.46125638     0.09200
Br3749     Br  0.59697241  0.05046179  0.51190168    -0.06300
Br3750     Br  0.66407792  0.12997546  0.55154099    -0.03300
Br3751     Br  0.65285690  0.03806254  0.45134531    -0.00400
Br3752     Br  0.60761447  0.14946362  0.49924729    -0.04800
C3753       C  0.63180228  0.97611137  0.62583478    -0.12200
C3754       C  0.64668673  0.95586240  0.62147448     0.03300
C3755       C  0.64501775  0.92066547  0.62145822    -0.12700
C3756       C  0.62877241  0.90505297  0.62578103     0.18100
C3757       C  0.61389484  0.92514467  0.62988653    -0.09800
C3758       C  0.61547993  0.96017578  0.62980286    -0.02700
H3759       H  0.65661421  0.90529445  0.61855694     0.04700
C3760       C  0.62797196  0.86785949  0.62694323     0.20100
H3761       H  0.60379291  0.97507776  0.63300106     0.09800
C3762       C  0.62534182  0.85249393  0.64358880    -0.16100
C3763       C  0.62584992  0.81736782  0.64546574     0.02800
C3764       C  0.62930205  0.79700598  0.63045243    -0.11400
C3765       C  0.63150930  0.81256897  0.61375310    -0.01500
C3766       C  0.63077900  0.84755510  0.61189472    -0.06600
H3767       H  0.62329148  0.86799861  0.65526507     0.05800
H3768       H  0.63372742  0.79739712  0.60198381     0.09200
Br3769     Br  0.59105496  0.90610356  0.63558136    -0.06300
Br3770     Br  0.66994524  0.97407444  0.61692705    -0.03300
Br3771     Br  0.62295345  0.79928657  0.66901956    -0.00400
Br3772     Br  0.63328669  0.86628432  0.58845474    -0.04800
C3773       C  0.62256648  0.29697036  0.62843972    -0.12200
C3774       C  0.62314288  0.31503686  0.61218867     0.03300
C3775       C  0.62380136  0.35018453  0.61231458    -0.12700
C3776       C  0.62362436  0.36795016  0.62835526     0.18100
C3777       C  0.62205569  0.35024052  0.64453606    -0.09800
C3778       C  0.62160313  0.31494047  0.64449841    -0.02700
H3779       H  0.62442824  0.36380543  0.59980911     0.04700
C3780       C  0.62453188  0.40503883  0.62768702     0.20100
H3781       H  0.62101390  0.30152840  0.65706436     0.09800
C3782       C  0.60866531  0.42334167  0.62599092    -0.16100
C3783       C  0.60895222  0.45844159  0.62449983     0.02800
C3784       C  0.62538407  0.47591206  0.62489813    -0.11400
C3785       C  0.64133061  0.45734226  0.62598895    -0.01500
C3786       C  0.64098860  0.42211176  0.62737585    -0.06600
H3787       H  0.59600375  0.41017710  0.62560755     0.05800
H3788       H  0.65405130  0.47029399  0.62629751     0.09200
Br3789     Br  0.62067628  0.37319879  0.66691146    -0.06300
Br3790     Br  0.62218918  0.29350026  0.58931503    -0.03300
Br3791     Br  0.58652243  0.48078551  0.62078835    -0.00400
Br3792     Br  0.66320929  0.39824135  0.62904963    -0.04800
C3793       C  0.80540697  0.09138538  0.63197085    -0.12200
C3794       C  0.79529032  0.08006530  0.61729382     0.03300
C3795       C  0.77667855  0.08220918  0.61765029    -0.12700
C3796       C  0.76769648  0.09629228  0.63222358     0.18100
C3797       C  0.77783837  0.10856932  0.64670280    -0.09800
C3798       C  0.79649976  0.10568286  0.64654935    -0.02700
H3799       H  0.76911417  0.07197249  0.60661879     0.04700
C3800       C  0.74781745  0.09614286  0.63229917     0.20100
H3801       H  0.80408953  0.11440549  0.65792685     0.09800
C3802       C  0.73867606  0.07936298  0.64604798    -0.16100
C3803       C  0.71997896  0.07855850  0.64647321     0.02800
C3804       C  0.71006855  0.09369342  0.63267197    -0.11400
C3805       C  0.71915665  0.10922139  0.61855198    -0.01500
C3806       C  0.73781742  0.11095415  0.61836695    -0.06600
H3807       H  0.74612211  0.06695009  0.65655738     0.05800
H3808       H  0.71166603  0.12160168  0.60805134     0.09200
Br3809     Br  0.76699546  0.12983948  0.66690919    -0.06300
Br3810     Br  0.80588910  0.05848380  0.59703832    -0.03300
Br3811     Br  0.70851957  0.05591657  0.66592090    -0.00400
Br3812     Br  0.74879889  0.13604025  0.59942861    -0.04800
C3813       C  0.45803880  0.22929428  0.62809281    -0.12200
C3814       C  0.46467769  0.20260074  0.63886822     0.03300
C3815       C  0.48296832  0.19505921  0.63890667    -0.12700
C3816       C  0.49495817  0.21319288  0.62828362     0.18100
C3817       C  0.48841902  0.23889004  0.61713786    -0.09800
C3818       C  0.47023900  0.24693362  0.61723584    -0.02700
H3819       H  0.48787913  0.17461480  0.64716751     0.04700
C3820       C  0.51408652  0.20370335  0.62828582     0.20100
H3821       H  0.46568105  0.26719220  0.60866674     0.09800
C3822       C  0.51928626  0.17390664  0.61979890    -0.16100
C3823       C  0.53724047  0.16421115  0.61910508     0.02800
C3824       C  0.55053208  0.18461110  0.62710439    -0.11400
C3825       C  0.54512613  0.21415770  0.63599182    -0.01500
C3826       C  0.52712778  0.22376486  0.63660284    -0.06600
H3827       H  0.50926883  0.15810715  0.61359749     0.05800
H3828       H  0.55495415  0.23013363  0.64235420     0.09200
Br3829     Br  0.50371323  0.26265891  0.60094361    -0.06300
Br3830     Br  0.44982145  0.17384918  0.65315130    -0.03300
Br3831     Br  0.54223737  0.12194167  0.60774920    -0.00400
Br3832     Br  0.52089817  0.26416048  0.64917215    -0.04800
C3833       C  0.62497689  0.83700931  0.95689165    -0.12200
C3834       C  0.62932916  0.86962759  0.96304718     0.03300
C3835       C  0.62933237  0.87639049  0.98139555    -0.12700
C3836       C  0.62508966  0.85101461  0.99373314     0.18100
C3837       C  0.62081555  0.81853120  0.98756097    -0.09800
C3838       C  0.62069113  0.81184711  0.96933540    -0.02700
H3839       H  0.63248178  0.90152663  0.98604610     0.04700
C3840       C  0.62485741  0.85818365  0.01305185     0.20100
H3841       H  0.61746475  0.78661274  0.96486368     0.09800
C3842       C  0.60839668  0.86069480  0.02175198    -0.16100
C3843       C  0.60737893  0.85984724  0.04034828     0.02800
C3844       C  0.62311588  0.85571698  0.05062861    -0.11400
C3845       C  0.63969379  0.85663041  0.04181406    -0.01500
C3846       C  0.64063382  0.85788776  0.02319644    -0.06600
H3847       H  0.59620394  0.86176547  0.01399301     0.05800
H3848       H  0.65198301  0.85401979  0.04929952     0.09200
Br3849     Br  0.61543140  0.78218493  0.00360674    -0.06300
Br3850     Br  0.63416236  0.90623889  0.94701906    -0.03300
Br3851     Br  0.58403959  0.86428990  0.05062395    -0.00400
Br3852     Br  0.66365453  0.85615100  0.01211467    -0.04800
C3853       C  0.70697542  0.83554252  0.87419274    -0.12200
C3854       C  0.71749512  0.82353303  0.88843322     0.03300
C3855       C  0.73606850  0.82470715  0.88732839    -0.12700
C3856       C  0.74464721  0.83886863  0.87251184     0.18100
C3857       C  0.73412050  0.85169396  0.85839719    -0.09800
C3858       C  0.71546207  0.84949877  0.85924568    -0.02700
H3859       H  0.74390520  0.81385155  0.89803420     0.04700
C3860       C  0.76449225  0.83900412  0.87203667     0.20100
H3861       H  0.70753629  0.85846878  0.84812374     0.09800
C3862       C  0.77354338  0.82428283  0.85758722    -0.16100
C3863       C  0.79222434  0.82482491  0.85663553     0.02800
C3864       C  0.80214258  0.83862094  0.87076394    -0.11400
C3865       C  0.79318130  0.85154691  0.88560055    -0.01500
C3866       C  0.77459891  0.85254335  0.88620266    -0.06600
H3867       H  0.76604891  0.81272096  0.84688608     0.05800
H3868       H  0.80070654  0.86292007  0.89635909     0.09200
Br3869     Br  0.74436759  0.87283246  0.83778216    -0.06300
Br3870     Br  0.70744644  0.80230844  0.90908692    -0.03300
Br3871     Br  0.80356731  0.80618186  0.83600212    -0.00400
Br3872     Br  0.76404535  0.87551446  0.90606360    -0.04800
C3873       C  0.45870821  0.68932767  0.87957881    -0.12200
C3874       C  0.46530726  0.72131574  0.87461182     0.03300
C3875       C  0.48366627  0.72754572  0.87507441    -0.12700
C3876       C  0.49567463  0.70245970  0.88055783     0.18100
C3877       C  0.48913545  0.67070677  0.88574594    -0.09800
C3878       C  0.47082088  0.66434102  0.88515424    -0.02700
H3879       H  0.48860616  0.75228739  0.87143317     0.04700
C3880       C  0.51492017  0.71021487  0.88120765     0.20100
H3881       H  0.46602734  0.63962380  0.88902785     0.09800
C3882       C  0.52348134  0.71233398  0.89774838    -0.16100
C3883       C  0.54164999  0.71999512  0.89890108     0.02800
C3884       C  0.55154324  0.72634630  0.88321656    -0.11400
C3885       C  0.54290082  0.72365500  0.86664618    -0.01500
C3886       C  0.52476968  0.71570826  0.86556123    -0.06600
H3887       H  0.51597741  0.70776890  0.90983504     0.05800
H3888       H  0.55019110  0.72829679  0.85444405     0.09200
Br3889     Br  0.50468990  0.63510220  0.89349507    -0.06300
Br3890     Br  0.45001099  0.75834220  0.86859138    -0.03300
Br3891     Br  0.55212763  0.71916554  0.92222774    -0.00400
Br3892     Br  0.51408423  0.71197481  0.84242465    -0.04800
C3893       C  0.63532433  0.72543325  0.80142224    -0.12200
C3894       C  0.65130045  0.72489845  0.79128727     0.03300
C3895       C  0.65062092  0.71934144  0.77290157    -0.12700
C3896       C  0.63437410  0.71370984  0.76420830     0.18100
C3897       C  0.61854906  0.71284833  0.77423384    -0.09800
C3898       C  0.61907974  0.71887548  0.79261062    -0.02700
H3899       H  0.66292428  0.71879159  0.76534225     0.04700
C3900       C  0.63453424  0.70538125  0.74500731     0.20100
H3901       H  0.60665290  0.71892922  0.79995506     0.09800
C3902       C  0.63831108  0.67218918  0.74004332    -0.16100
C3903       C  0.63884027  0.66281635  0.72213345     0.02800
C3904       C  0.63590982  0.68711589  0.70862380    -0.11400
C3905       C  0.63192633  0.72044982  0.71366862    -0.01500
C3906       C  0.63124556  0.72968381  0.73169277    -0.06600
H3907       H  0.64057553  0.65327013  0.75023461     0.05800
H3908       H  0.62940306  0.73940609  0.70356331     0.09200
Br3909     Br  0.59600475  0.70282914  0.76336267    -0.06300
Br3910     Br  0.67470150  0.72939236  0.80152820    -0.03300
Br3911     Br  0.64197949  0.61577143  0.71733706    -0.00400
Br3912     Br  0.62576515  0.77557280  0.73754626    -0.04800
C3913       C  0.62632955  0.33677085  0.04875941    -0.12200
C3914       C  0.63583471  0.31348126  0.03828076     0.03300
C3915       C  0.63707117  0.31812851  0.01990275    -0.12700
C3916       C  0.62893848  0.34582765  0.01158496     0.18100
C3917       C  0.61961673  0.36949471  0.02208467    -0.09800
C3918       C  0.61840370  0.36487604  0.04058265    -0.02700
H3919       H  0.64388952  0.29933979  0.01196316     0.04700
C3920       C  0.62839260  0.34679744  0.99186089     0.20100
H3921       H  0.61109431  0.38295244  0.04854139     0.09800
C3922       C  0.61189574  0.34252574  0.98345247    -0.16100
C3923       C  0.61063488  0.33875155  0.96502791     0.02800
C3924       C  0.62631303  0.33897703  0.95439645    -0.11400
C3925       C  0.64282768  0.34466206  0.96287314    -0.01500
C3926       C  0.64397268  0.34823114  0.98140944    -0.06600
H3927       H  0.59986601  0.34101272  0.99140744     0.05800
H3928       H  0.65504353  0.34492800  0.95518482     0.09200
Br3929     Br  0.60836701  0.40832447  0.01167679    -0.06300
Br3930     Br  0.64674906  0.27399408  0.04829958    -0.03300
Br3931     Br  0.58682674  0.33311402  0.95589843    -0.00400
Br3932     Br  0.66713024  0.35418712  0.99187649    -0.04800
C3933       C  0.62913697  0.62180499  0.87568642    -0.12200
C3934       C  0.61336466  0.60259610  0.87393946     0.03300
C3935       C  0.61434310  0.56728341  0.87385664    -0.12700
C3936       C  0.63081463  0.55072976  0.87555725     0.18100
C3937       C  0.64651133  0.56979846  0.87720964    -0.09800
C3938       C  0.64558476  0.60495499  0.87733408    -0.02700
H3939       H  0.60220175  0.55264649  0.87266039     0.04700
C3940       C  0.63150680  0.51354059  0.87537492     0.20100
H3941       H  0.65783560  0.61922609  0.87869349     0.09800
C3942       C  0.63437203  0.49690713  0.85920093    -0.16100
C3943       C  0.63530526  0.46169253  0.85852943     0.02800
C3944       C  0.63355926  0.44259506  0.87431621    -0.11400
C3945       C  0.63103401  0.45940064  0.89053783    -0.01500
C3946       C  0.62980836  0.49457599  0.89113446    -0.06600
H3947       H  0.63589641  0.51141881  0.84706051     0.05800
H3948       H  0.62944284  0.44505216  0.90272357     0.09200
Br3949     Br  0.66949277  0.54881946  0.87942898    -0.06300
Br3950     Br  0.59010174  0.62293657  0.87294144    -0.03300
Br3951     Br  0.63972075  0.44122035  0.83584384    -0.00400
Br3952     Br  0.62544049  0.51555916  0.91367411    -0.04800
C3953       C  0.62864485  0.12198482  0.87920076    -0.12200
C3954       C  0.63329084  0.10385942  0.86378781     0.03300
C3955       C  0.63417215  0.06867788  0.86442741    -0.12700
C3956       C  0.63064332  0.05131614  0.88030831     0.18100
C3957       C  0.62627634  0.06939976  0.89576525    -0.09800
C3958       C  0.62535212  0.10453354  0.89513230    -0.02700
H3959       H  0.63770887  0.05477821  0.85254278     0.04700
C3960       C  0.63087585  0.01426045  0.88031196     0.20100
H3961       H  0.62201583  0.11831821  0.90711458     0.09800
C3962       C  0.64568111  0.99694432  0.88715072    -0.16100
C3963       C  0.64623205  0.96164703  0.88715528     0.02800
C3964       C  0.63155577  0.94316929  0.88032986    -0.11400
C3965       C  0.61677904  0.96105107  0.87351391    -0.01500
C3966       C  0.61640685  0.99614387  0.87339746    -0.06600
H3967       H  0.65692820  0.01101392  0.89233429     0.05800
H3968       H  0.60529552  0.94776305  0.86828631     0.09200
Br3969     Br  0.62120013  0.04710551  0.91787439    -0.06300
Br3970     Br  0.63991674  0.12598448  0.84203750    -0.03300
Br3971     Br  0.66779244  0.94106175  0.89584813    -0.00400
Br3972     Br  0.59572557  0.01837225  0.86384932    -0.04800
C3973       C  0.70881393  0.32738769  0.87221897    -0.12200
C3974       C  0.71871348  0.33615299  0.85694495     0.03300
C3975       C  0.73736699  0.33623936  0.85760912    -0.12700
C3976       C  0.74651370  0.32577715  0.87298695     0.18100
C3977       C  0.73658669  0.31672790  0.88822884    -0.09800
C3978       C  0.71794368  0.31823740  0.88782499    -0.02700
H3979       H  0.74477822  0.34415926  0.84596231     0.04700
C3980       C  0.76632356  0.32635349  0.87323894     0.20100
H3981       H  0.71051827  0.31035882  0.89948113     0.09800
C3982       C  0.77489114  0.34555069  0.88634112    -0.16100
C3983       C  0.79342458  0.34779985  0.88703035     0.02800
C3984       C  0.80387295  0.33164457  0.87400183    -0.11400
C3985       C  0.79542819  0.31262013  0.86072545    -0.01500
C3986       C  0.77678954  0.30950027  0.86036823    -0.06600
H3987       H  0.76706447  0.35946696  0.89596485     0.05800
H3988       H  0.80334703  0.30038215  0.85055377     0.09200
Br3989     Br  0.74767882  0.29970889  0.90952719    -0.06300
Br3990     Br  0.70751690  0.34805964  0.83481079    -0.03300
Br3991     Br  0.80350525  0.37580810  0.90525416    -0.00400
Br3992     Br  0.76645507  0.28175900  0.84215480    -0.04800
C3993       C  0.45822882  0.19592151  0.87850463    -0.12200
C3994       C  0.46414914  0.22894030  0.87479197     0.03300
C3995       C  0.48246580  0.23592528  0.87473971    -0.12700
C3996       C  0.49495798  0.21038704  0.87829501     0.18100
C3997       C  0.48903335  0.17744565  0.88183312    -0.09800
C3998       C  0.47081153  0.17048510  0.88196493    -0.02700
H3999       H  0.48698651  0.26143932  0.87223819     0.04700
C4000       C  0.51410632  0.21861960  0.87902120     0.20100
H4001       H  0.46643648  0.14496224  0.88472139     0.09800
C4002       C  0.52257042  0.22000050  0.89561360    -0.16100
C4003       C  0.54080035  0.22687552  0.89693664     0.02800
C4004       C  0.55096178  0.23242218  0.88133958    -0.11400
C4005       C  0.54236428  0.23068186  0.86468482    -0.01500
C4006       C  0.52405900  0.22410799  0.86346368    -0.06600
H4007       H  0.51492634  0.21545677  0.90761608     0.05800
H4008       H  0.54983049  0.23506179  0.85256191     0.09200
Br4009     Br  0.50534567  0.14106811  0.88634500    -0.06300
Br4010     Br  0.44787464  0.26574626  0.87110336    -0.03300
Br4011     Br  0.55087404  0.22649865  0.92043140    -0.00400
Br4012     Br  0.51313286  0.22243180  0.84036433    -0.04800
C4013       C  0.63440782  0.22009975  0.80086458    -0.12200
C4014       C  0.62289282  0.19600116  0.79297823     0.03300
C4015       C  0.62296673  0.19144639  0.77444884    -0.12700
C4016       C  0.63428479  0.21043954  0.76347459     0.18100
C4017       C  0.64585111  0.23401768  0.77121347    -0.09800
C4018       C  0.64589206  0.23857717  0.78962385    -0.02700
H4019       H  0.61420367  0.17283767  0.76854529     0.04700
C4020       C  0.63442232  0.20458933  0.74403516     0.20100
H4021       H  0.65480501  0.25739851  0.79507156     0.09800
C4022       C  0.62648842  0.22819366  0.73251834    -0.16100
C4023       C  0.62702168  0.22378834  0.71399124     0.02800
C4024       C  0.63548326  0.19505175  0.70674971    -0.11400
C4025       C  0.64362529  0.17185997  0.71843320    -0.01500
C4026       C  0.64319159  0.17645446  0.73683935    -0.06600
H4027       H  0.62009198  0.25038414  0.73797859     0.05800
H4028       H  0.65019060  0.14960300  0.71326040     0.09200
Br4029     Br  0.66200351  0.26043767  0.75714387    -0.06300
Br4030     Br  0.60727523  0.16735939  0.80638156    -0.03300
Br4031     Br  0.61719387  0.25902305  0.69941652    -0.00400
Br4032     Br  0.65521697  0.14406794  0.75161281    -0.04800
loop_ 
_geom_bond_atom_site_label_1 
_geom_bond_atom_site_label_2 
_geom_bond_distance 
_geom_bond_site_symmetry_2 
_ccdc_geom_bond_type 
Zr1           O2   2.438       .  S
Zr1           O3   2.444       .  S
Zr1           O4   2.458       .  S
Zr1           O7   2.441       .  S
Zr1           O9   2.379       .  S
Zr1          O10   2.387       .  S
Zr1          O11   2.410       .  S
Zr1          O12   2.403       .  S
O2           H58   0.989       .  S
O2           H66   0.990       .  S
O3           C23   1.284       .  A
O4           C25   1.287       .  A
O5          Zr15   2.420       .  S
O5           C24   1.282       .  A
O6          Zr14   2.427       .  S
O6           C25   1.284       .  A
O7           C24   1.286       .  A
O8          Zr16   2.397       .  S
O8           C23   1.276       .  A
O9          Zr14   2.390       .  S
O9          Zr16   2.386       .  S
O10         Zr15   2.392       .  S
O10         Zr16   2.378       .  S
O10          H45   0.966       .  S
O11         Zr14   2.397       .  S
O11         Zr31   2.385       .  S
O11          H48   0.965       .  S
O12         Zr15   2.387       .  S
O12         Zr31   2.393       .  S
Zr13         O38   2.442       .  S
Zr13         O32   2.448       .  S
Zr13         O40   2.459       .  S
Zr13         O28   2.463       .  S
Zr13         O19   2.400       .  S
Zr13         O20   2.415       .  S
Zr13         O21   2.385       .  S
Zr13         O22   2.388       .  S
Zr14         O33   2.437       .  S
Zr14         O26   2.434       .  S
Zr14         O27   2.413       .  S
Zr14         O20   2.402       .  S
Zr14         O21   2.401       .  S
Zr15         O17   2.435       .  S
Zr15         O39   2.438       .  S
Zr15         O41   2.409       .  S
Zr15         O19   2.385       .  S
Zr15         O22   2.395       .  S
Zr16         O42   2.435       .  S
Zr16         O43   2.436       .  S
Zr16         O18   2.437       .  S
Zr16         O19   2.382       .  S
Zr16         O20   2.380       .  S
O17          H54   0.990       .  S
O18          H49   0.990       .  S
O18          H63   0.990       .  S
O20          H46   0.964       .  S
O21         Zr31   2.382       .  S
O22         Zr31   2.382       .  S
O22          H47   0.966       .  S
C23        C3953   1.467       .  S
C24        C4004   1.482       .  S
C25        C4013   1.494       .  S
O26          H62   0.990       .  S
O27          C29   1.281       .  A
O28          C29   1.289       .  A
C29        C3973   1.475       .  S
O30         Zr31   2.440       .  S
O30          H59   0.990       .  S
Zr31         O34   2.437       .  S
Zr31         O35   2.440       .  S
Zr31         O36   2.409       .  S
O32          C37   1.285       .  A
O33          H50   0.990       .  S
O33          H65   0.990       .  S
O34          H51   0.990       .  S
O35          H55   0.990       .  S
O35          H64   0.990       .  S
O36          C37   1.279       .  A
C37        C3944   1.476       .  S
O38          H57   0.991       .  S
O38          H61   0.990       .  S
O39          H53   0.990       .  S
O39          H60   0.989       .  S
O40          C44   1.290       .  A
O41          C44   1.279       .  A
O42          H52   0.990       .  S
O43          H56   0.990       .  S
C44        C3924   1.493       .  S
Zr67         O68   2.441       .  S
Zr67         O69   2.444       .  S
Zr67         O70   2.462       .  S
Zr67         O73   2.438       .  S
Zr67         O75   2.378       .  S
Zr67         O76   2.385       .  S
Zr67         O77   2.407       .  S
Zr67         O78   2.406       .  S
O68         H124   0.990       .  S
O68         H132   0.990       .  S
O69          C89   1.284       .  A
O70          C91   1.289       .  A
O71         Zr81   2.421       .  S
O71          C90   1.283       .  A
O72         Zr80   2.419       .  S
O72          C91   1.281       .  A
O73          C90   1.286       .  A
O74         Zr82   2.403       .  S
O74          C89   1.278       .  A
O75         Zr80   2.397       .  S
O75         Zr82   2.383       .  S
O76         Zr81   2.395       .  S
O76         Zr82   2.373       .  S
O76         H111   0.966       .  S
O77         Zr80   2.399       .  S
O77         Zr97   2.388       .  S
O77         H114   0.965       .  S
O78         Zr81   2.392       .  S
O78         Zr97   2.389       .  S
Zr79        O104   2.441       .  S
Zr79         O98   2.434       .  S
Zr79        O106   2.443       .  S
Zr79         O94   2.455       .  S
Zr79         O85   2.400       .  S
Zr79         O86   2.410       .  S
Zr79         O87   2.380       .  S
Zr79         O88   2.384       .  S
Zr80         O99   2.436       .  S
Zr80         O92   2.434       .  S
Zr80         O93   2.419       .  S
Zr80         O86   2.403       .  S
Zr80         O87   2.393       .  S
Zr81         O83   2.436       .  S
Zr81        O105   2.437       .  S
Zr81        O107   2.422       .  S
Zr81         O85   2.386       .  S
Zr81         O88   2.390       .  S
Zr82        O108   2.436       .  S
Zr82        O109   2.435       .  S
Zr82         O84   2.436       .  S
Zr82         O85   2.388       .  S
Zr82         O86   2.387       .  S
O83         H120   0.990       .  S
O84         H115   0.990       .  S
O84         H129   0.990       .  S
O86         H112   0.965       .  S
O87         Zr97   2.381       .  S
O88         Zr97   2.381       .  S
O88         H113   0.966       .  S
C89        C3933   1.480       .  S
C90        C3884   1.482       .  S
C91        C3893   1.493       .  S
O92         H128   0.990       .  S
O93          C95   1.282       .  A
O94          C95   1.287       .  A
C95        C3853   1.475       .  S
O96         Zr97   2.440       .  S
O96         H125   0.990       .  S
Zr97        O100   2.437       .  S
Zr97        O101   2.441       .  S
Zr97        O102   2.403       .  S
O98         C103   1.282       .  A
O99         H116   0.990       .  S
O99         H131   0.990       .  S
O100        H117   0.990       .  S
O101        H121   0.990       .  S
O101        H130   0.989       .  S
O102        C103   1.279       .  A
C103       C3964   1.484       .  S
O104        H123   0.989       .  S
O104        H127   0.990       .  S
O105        H119   0.990       .  S
O105        H126   0.990       .  S
O106        C110   1.285       .  A
O107        C110   1.283       .  A
O108        H118   0.990       .  S
O109        H122   0.990       .  S
C110       C3833   1.480       .  S
Zr133       O134   2.442       .  S
Zr133       O135   2.446       .  S
Zr133       O136   2.455       .  S
Zr133       O139   2.440       .  S
Zr133       O141   2.383       .  S
Zr133       O142   2.387       .  S
Zr133       O143   2.411       .  S
Zr133       O144   2.406       .  S
O134        H190   0.990       .  S
O134        H198   0.990       .  S
O135        C155   1.285       .  A
O136        C157   1.286       .  A
O137       Zr147   2.435       .  S
O137        C156   1.285       .  A
O138       Zr146   2.425       .  S
O138        C157   1.284       .  A
O139        C156   1.286       .  A
O140       Zr148   2.397       .  S
O140        C155   1.276       .  A
O141       Zr146   2.400       .  S
O141       Zr148   2.381       .  S
O142       Zr147   2.396       .  S
O142       Zr148   2.376       .  S
O142        H177   0.966       .  S
O143       Zr146   2.399       .  S
O143       Zr163   2.382       .  S
O143        H180   0.965       .  S
O144       Zr147   2.391       .  S
O144       Zr163   2.392       .  S
Zr145       O170   2.443       .  S
Zr145       O164   2.459       .  S
Zr145       O172   2.447       .  S
Zr145       O160   2.459       .  S
Zr145       O151   2.398       .  S
Zr145       O152   2.417       .  S
Zr145       O153   2.384       .  S
Zr145       O154   2.392       .  S
Zr146       O165   2.436       .  S
Zr146       O158   2.434       .  S
Zr146       O159   2.427       .  S
Zr146       O152   2.400       .  S
Zr146       O153   2.396       .  S
Zr147       O149   2.434       .  S
Zr147       O171   2.438       .  S
Zr147       O173   2.437       .  S
Zr147       O151   2.388       .  S
Zr147       O154   2.391       .  S
Zr148       O174   2.436       .  S
Zr148       O175   2.435       .  S
Zr148       O150   2.437       .  S
Zr148       O151   2.381       .  S
Zr148       O152   2.386       .  S
O149        H186   0.990       .  S
O150        H181   0.990       .  S
O150        H195   0.990       .  S
O152        H178   0.964       .  S
O153       Zr163   2.383       .  S
O154       Zr163   2.385       .  S
O154        H179   0.966       .  S
C155       C3773   1.477       .  S
C156       C3824   1.491       .  S
C157       C4024   1.486       .  S
O158        H194   0.990       .  S
O159        C161   1.283       .  A
O160        C161   1.287       .  A
C161       C3804   1.476       .  S
O162       Zr163   2.440       .  S
O162        H191   0.990       .  S
Zr163       O166   2.437       .  S
Zr163       O167   2.439       .  S
Zr163       O168   2.399       .  S
O164        C169   1.287       .  A
O165        H182   0.990       .  S
O165        H197   0.990       .  S
O166        H183   0.990       .  S
O167        H187   0.990       .  S
O167        H196   0.990       .  S
O168        C169   1.278       .  A
C169       C3753   1.485   1_545  S
O170        H189   0.991       .  S
O170        H193   0.990       .  S
O171        H185   0.990       .  S
O171        H192   0.990       .  S
O172        C176   1.286       .  A
O173        C176   1.286       .  A
O174        H184   0.990       .  S
O175        H188   0.990       .  S
C176       C3733   1.481       .  S
Zr199       O200   2.443       .  S
Zr199       O201   2.439       .  S
Zr199       O202   2.456       .  S
Zr199       O205   2.439       .  S
Zr199       O207   2.381       .  S
Zr199       O208   2.386       .  S
Zr199       O209   2.410       .  S
Zr199       O210   2.402       .  S
O200        H256   0.990       .  S
O200        H264   0.991       .  S
O201        C221   1.283       .  A
O202        C223   1.287       .  A
O203       Zr213   2.414       .  S
O203        C222   1.282       .  A
O204       Zr212   2.436       .  S
O204        C223   1.285       .  A
O205        C222   1.285       .  A
O206       Zr214   2.412       .  S
O206        C221   1.281       .  A
O207       Zr212   2.399       .  S
O207       Zr214   2.384       .  S
O208       Zr213   2.391       .  S
O208       Zr214   2.371       .  S
O208        H243   0.965       .  S
O209       Zr212   2.399       .  S
O209       Zr229   2.388       .  S
O209        H246   0.965       .  S
O210       Zr213   2.390       .  S
O210       Zr229   2.382       .  S
Zr211       O236   2.442       .  S
Zr211       O230   2.454       .  S
Zr211       O238   2.463       .  S
Zr211       O226   2.453       .  S
Zr211       O217   2.405       .  S
Zr211       O218   2.420       .  S
Zr211       O219   2.385       .  S
Zr211       O220   2.385       .  S
Zr212       O231   2.433       .  S
Zr212       O224   2.434       .  S
Zr212       O225   2.422       .  S
Zr212       O218   2.404       .  S
Zr212       O219   2.397       .  S
Zr213       O215   2.435       .  S
Zr213       O237   2.441       .  S
Zr213       O239   2.422       .  S
Zr213       O217   2.387       .  S
Zr213       O220   2.390       .  S
Zr214       O240   2.435       .  S
Zr214       O241   2.436       .  S
Zr214       O216   2.437       .  S
Zr214       O217   2.394       .  S
Zr214       O218   2.381       .  S
O215        H252   0.990       .  S
O216        H247   0.990       .  S
O216        H261   0.990       .  S
O218        H244   0.964       .  S
O219       Zr229   2.382       .  S
O220       Zr229   2.384       .  S
O220        H245   0.966       .  S
C221       C3764   1.480       .  S
C222       C3724   1.473       .  S
C223       C3904   1.487       .  S
O224        H260   0.990       .  S
O225        C227   1.282       .  A
O226        C227   1.287       .  A
C227       C3693   1.473       .  S
O228       Zr229   2.441       .  S
O228        H257   0.990       .  S
Zr229       O232   2.438       .  S
Zr229       O233   2.438       .  S
Zr229       O234   2.404       .  S
O230        C235   1.286       .  A
O231        H248   0.990       .  S
O231        H263   0.989       .  S
O232        H249   0.990       .  S
O233        H253   0.990       .  S
O233        H262   0.989       .  S
O234        C235   1.278       .  A
C235       C3784   1.479       .  S
O236        H255   0.991       .  S
O236        H259   0.990       .  S
O237        H251   0.990       .  S
O237        H258   0.990       .  S
O238        C242   1.290       .  A
O239        C242   1.281       .  A
O240        H250   0.990       .  S
O241        H254   0.990       .  S
C242       C3673   1.505       .  S
Zr265       O266   2.442       .  S
Zr265       O267   2.437       .  S
Zr265       O268   2.447       .  S
Zr265       O271   2.434       .  S
Zr265       O273   2.379       .  S
Zr265       O274   2.387       .  S
Zr265       O275   2.410       .  S
Zr265       O276   2.403       .  S
O266        H322   0.990       .  S
O266        H330   0.990       .  S
O267        C287   1.283       .  A
O268        C289   1.285       .  A
O269       Zr279   2.414       .  S
O269        C288   1.282       .  A
O270       Zr278   2.417       .  S
O270        C289   1.282       .  A
O271        C288   1.284       .  A
O272       Zr280   2.409       .  S
O272        C287   1.278       .  A
O273       Zr278   2.393       .  S
O273       Zr280   2.382       .  S
O274       Zr279   2.397       .  S
O274       Zr280   2.376       .  S
O274        H309   0.966       .  S
O275       Zr278   2.399       .  S
O275       Zr295   2.389       .  S
O275        H312   0.965       .  S
O276       Zr279   2.383       .  S
O276       Zr295   2.387       .  S
Zr277       O302   2.440       .  S
Zr277       O296   2.446       .  S
Zr277       O304   2.458       .  S
Zr277       O292   2.459       .  S
Zr277       O283   2.401       .  S
Zr277       O284   2.413       .  S
Zr277       O285   2.384       .  S
Zr277       O286   2.385       .  S
Zr278       O297   2.437       .  S
Zr278       O290   2.435       .  S
Zr278       O291   2.413       .  S
Zr278       O284   2.399       .  S
Zr278       O285   2.393       .  S
Zr279       O281   2.435       .  S
Zr279       O303   2.438       .  S
Zr279       O305   2.411       .  S
Zr279       O283   2.387       .  S
Zr279       O286   2.390       .  S
Zr280       O306   2.435       .  S
Zr280       O307   2.435       .  S
Zr280       O282   2.437       .  S
Zr280       O283   2.387       .  S
Zr280       O284   2.383       .  S
O281        H318   0.990       .  S
O282        H313   0.990       .  S
O282        H327   0.990       .  S
O284        H310   0.964       .  S
O285       Zr295   2.382       .  S
O286       Zr295   2.384       .  S
O286        H311   0.966       .  S
C287       C3613   1.467       .  S
C288       C3993   1.471       .  S
C289       C3653   1.477       .  S
O290        H326   0.990       .  S
O291        C293   1.281       .  A
O292        C293   1.288       .  A
C293       C3633   1.474       .  S
O294       Zr295   2.441       .  S
O294        H323   0.990       .  S
Zr295       O298   2.437       .  S
Zr295       O299   2.443       .  S
Zr295       O300   2.404       .  S
O296        C301   1.285       .  A
O297        H314   0.990       .  S
O297        H329   0.990       .  S
O298        H315   0.990       .  S
O299        H319   0.990       .  S
O299        H328   0.989       .  S
O300        C301   1.278       .  A
C301       C3593   1.471   1_545  S
O302        H321   0.990       .  S
O302        H325   0.990       .  S
O303        H317   0.990       .  S
O303        H324   0.990       .  S
O304        C308   1.288       .  A
O305        C308   1.282       .  A
O306        H316   0.990       .  S
O307        H320   0.990       .  S
C308       C3573   1.487       .  S
Zr331       O332   2.441       .  S
Zr331       O333   2.450       .  S
Zr331       O334   2.457       .  S
Zr331       O337   2.442       .  S
Zr331       O339   2.379       .  S
Zr331       O340   2.388       .  S
Zr331       O341   2.411       .  S
Zr331       O342   2.406       .  S
O332        H388   0.990       .  S
O332        H396   0.990       .  S
O333        C353   1.284       .  A
O334        C355   1.287       .  A
O335       Zr345   2.416       .  S
O335        C354   1.283       .  A
O336       Zr344   2.425       .  S
O336        C355   1.284       .  A
O337        C354   1.286       .  A
O338       Zr346   2.397       .  S
O338        C353   1.278       .  A
O339       Zr344   2.399       .  S
O339       Zr346   2.384       .  S
O340       Zr345   2.398       .  S
O340       Zr346   2.369       .  S
O340        H375   0.966       .  S
O341       Zr344   2.402       .  S
O341       Zr361   2.386       .  S
O341        H378   0.965       .  S
O342       Zr345   2.391       .  S
O342       Zr361   2.388       .  S
Zr343       O368   2.442       .  S
Zr343       O362   2.445       .  S
Zr343       O370   2.440       .  S
Zr343       O358   2.453       .  S
Zr343       O349   2.403       .  S
Zr343       O350   2.408       .  S
Zr343       O351   2.382       .  S
Zr343       O352   2.384       .  S
Zr344       O363   2.434       .  S
Zr344       O356   2.436       .  S
Zr344       O357   2.424       .  S
Zr344       O350   2.399       .  S
Zr344       O351   2.399       .  S
Zr345       O347   2.435       .  S
Zr345       O369   2.439       .  S
Zr345       O371   2.428       .  S
Zr345       O349   2.385       .  S
Zr345       O352   2.391       .  S
Zr346       O372   2.436       .  S
Zr346       O373   2.435       .  S
Zr346       O348   2.436       .  S
Zr346       O349   2.384       .  S
Zr346       O350   2.375       .  S
O347        H384   0.990       .  S
O348        H379   0.990       .  S
O348        H393   0.990       .  S
O350        H376   0.961       .  S
O351       Zr361   2.385       .  S
O352       Zr361   2.379       .  S
O352        H377   0.966       .  S
C353       C3604   1.492       .  S
C354       C3873   1.478       .  S
C355       C3564   1.481       .  S
O356        H392   0.990       .  S
O357        C359   1.282       .  A
O358        C359   1.285       .  A
C359       C3533   1.466       .  S
O360       Zr361   2.439       .  S
O360        H389   0.990       .  S
Zr361       O364   2.438       .  S
Zr361       O365   2.439       .  S
Zr361       O366   2.401       .  S
O362        C367   1.283       .  A
O363        H380   0.990       .  S
O363        H395   0.990       .  S
O364        H381   0.990       .  S
O365        H385   0.990       .  S
O365        H394   0.990       .  S
O366        C367   1.278       .  A
C367       C3624   1.485       .  S
O368        H387   0.990       .  S
O368        H391   0.990       .  S
O369        H383   0.990       .  S
O369        H390   0.990       .  S
O370        C374   1.285       .  A
O371        C374   1.285       .  A
O372        H382   0.990       .  S
O373        H386   0.990       .  S
C374       C3513   1.482       .  S
Zr397       O398   2.440       .  S
Zr397       O399   2.452       .  S
Zr397       O400   2.441       .  S
Zr397       O403   2.439       .  S
Zr397       O405   2.382       .  S
Zr397       O406   2.381       .  S
Zr397       O407   2.409       .  S
Zr397       O408   2.402       .  S
O398        H454   0.990       .  S
O398        H462   0.990       .  S
O399        C419   1.287       .  A
O400        C421   1.284       .  A
O401       Zr411   2.431       .  S
O401        C420   1.285       .  A
O402       Zr410   2.424       .  S
O402        C421   1.284       .  A
O403        C420   1.284       .  A
O404       Zr412   2.408       .  S
O404        C419   1.278       .  A
O405       Zr410   2.393       .  S
O405       Zr412   2.378       .  S
O406       Zr411   2.394       .  S
O406       Zr412   2.375       .  S
O406        H441   0.966       .  S
O407       Zr410   2.397       .  S
O407       Zr427   2.386       .  S
O407        H444   0.966       .  S
O408       Zr411   2.388       .  S
O408       Zr427   2.394       .  S
Zr409       O434   2.442       .  S
Zr409       O428   2.458       .  S
Zr409       O436   2.452       .  S
Zr409       O424   2.460       .  S
Zr409       O415   2.404       .  S
Zr409       O416   2.418       .  S
Zr409       O417   2.383       .  S
Zr409       O418   2.390       .  S
Zr410       O429   2.437       .  S
Zr410       O422   2.436       .  S
Zr410       O423   2.422       .  S
Zr410       O416   2.399       .  S
Zr410       O417   2.398       .  S
Zr411       O413   2.435       .  S
Zr411       O435   2.438       .  S
Zr411       O437   2.432       .  S
Zr411       O415   2.389       .  S
Zr411       O418   2.395       .  S
Zr412       O438   2.436       .  S
Zr412       O439   2.435       .  S
Zr412       O414   2.438       .  S
Zr412       O415   2.385       .  S
Zr412       O416   2.386       .  S
O413        H450   0.990       .  S
O414        H445   0.990       .  S
O414        H459   0.990       .  S
O416        H442   0.964       .  S
O417       Zr427   2.383       .  S
O418       Zr427   2.384       .  S
O418        H443   0.966       .  S
C419       C3473   1.471       .  S
C420       C3813   1.496       .  S
C421       C3664   1.484       .  S
O422        H458   0.990       .  S
O423        C425   1.282       .  A
O424        C425   1.287       .  A
C425       C3504   1.476       .  S
O426       Zr427   2.440       .  S
O426        H455   0.990       .  S
Zr427       O430   2.437       .  S
Zr427       O431   2.439       .  S
Zr427       O432   2.405       .  S
O428        C433   1.286       .  A
O429        H446   0.990       .  S
O429        H461   0.990       .  S
O430        H447   0.990       .  S
O431        H451   0.990       .  S
O431        H460   0.990       .  S
O432        C433   1.279       .  A
C433       C3453   1.483       .  S
O434        H453   0.991       .  S
O434        H457   0.990       .  S
O435        H449   0.990       .  S
O435        H456   0.990       .  S
O436        C440   1.288       .  A
O437        C440   1.285       .  A
O438        H448   0.990       .  S
O439        H452   0.990       .  S
C440       C3433   1.485       .  S
Zr463       O464   2.440       .  S
Zr463       O465   2.458       .  S
Zr463       O466   2.465       .  S
Zr463       O469   2.440       .  S
Zr463       O471   2.379       .  S
Zr463       O472   2.389       .  S
Zr463       O473   2.411       .  S
Zr463       O474   2.409       .  S
O464        H520   0.989       .  S
O464        H528   0.990       .  S
O465        C485   1.287       .  A
O466        C487   1.288       .  A
O467       Zr477   2.421       .  S
O467        C486   1.282       .  A
O468       Zr476   2.422       .  S
O468        C487   1.283       .  A
O469        C486   1.286       .  A
O470       Zr478   2.403       .  S
O470        C485   1.277       .  A
O471       Zr476   2.396       .  S
O471       Zr478   2.388       .  S
O472       Zr477   2.396       .  S
O472       Zr478   2.373       .  S
O472        H507   0.966       .  S
O473       Zr476   2.399       .  S
O473       Zr493   2.395       .  S
O473        H510   0.964       .  S
O474       Zr477   2.390       .  S
O474       Zr493   2.388       .  S
Zr475       O500   2.441       .  S
Zr475       O494   2.451       .  S
Zr475       O502   2.455       .  S
Zr475       O490   2.456       .  S
Zr475       O481   2.403       .  S
Zr475       O482   2.417       .  S
Zr475       O483   2.382       .  S
Zr475       O484   2.388       .  S
Zr476       O495   2.437       .  S
Zr476       O488   2.434       .  S
Zr476       O489   2.419       .  S
Zr476       O482   2.402       .  S
Zr476       O483   2.396       .  S
Zr477       O479   2.435       .  S
Zr477       O501   2.439       .  S
Zr477       O503   2.426       .  S
Zr477       O481   2.384       .  S
Zr477       O484   2.398       .  S
Zr478       O504   2.436       .  S
Zr478       O505   2.435       .  S
Zr478       O480   2.436       .  S
Zr478       O481   2.386       .  S
Zr478       O482   2.385       .  S
O479        H516   0.990       .  S
O480        H511   0.990       .  S
O480        H525   0.990       .  S
O482        H508   0.964       .  S
O483       Zr493   2.381       .  S
O484       Zr493   2.381       .  S
O484        H509   0.966       .  S
C485       C3464   1.476       .  S
C486       C3713   1.482       .  S
C487       C3553   1.494       .  S
O488        H524   0.990       .  S
O489        C491   1.281       .  A
O490        C491   1.288       .  A
C491       C3413   1.475       .  S
O492       Zr493   2.439       .  S
O492        H521   0.991       .  S
Zr493       O496   2.438       .  S
Zr493       O497   2.440       .  S
Zr493       O498   2.410       .  S
O494        C499   1.286       .  A
O495        H512   0.990       .  S
O495        H527   0.990       .  S
O496        H513   0.989       .  S
O497        H517   0.990       .  S
O497        H526   0.990       .  S
O498        C499   1.279       .  A
C499       C3484   1.483       .  S
O500        H519   0.990       .  S
O500        H523   0.990       .  S
O501        H515   0.990       .  S
O501        H522   0.990       .  S
O502        C506   1.289       .  A
O503        C506   1.283       .  A
O504        H514   0.990       .  S
O505        H518   0.990       .  S
C506       C3393   1.494       .  S
Zr529       O530   2.440       .  S
Zr529       O531   2.440       .  S
Zr529       O532   2.455       .  S
Zr529       O535   2.446       .  S
Zr529       O537   2.383       .  S
Zr529       O538   2.386       .  S
Zr529       O539   2.408   1_565  S
Zr529       O540   2.402   1_565  S
O530        H586   0.990       .  S
O530        H594   0.990       .  S
O531        C551   1.283       .  A
O532        C553   1.287       .  A
O533       Zr543   2.421       .  S
O533        C552   1.282   1_545  A
O534       Zr542   2.430       .  S
O534        C553   1.284   1_545  A
O535        C552   1.288       .  A
O536       Zr544   2.415       .  S
O536        C551   1.280       .  A
O537       Zr542   2.397   1_565  S
O537       Zr544   2.382       .  S
O538       Zr543   2.394   1_565  S
O538       Zr544   2.370       .  S
O538        H573   0.966       .  S
O539       Zr542   2.403       .  S
O539       Zr559   2.382       .  S
O539        H576   0.965       .  S
O540       Zr543   2.392       .  S
O540       Zr559   2.383       .  S
Zr541       O566   2.442       .  S
Zr541       O560   2.447       .  S
Zr541       O568   2.451       .  S
Zr541       O556   2.452       .  S
Zr541       O547   2.403       .  S
Zr541       O548   2.418       .  S
Zr541       O549   2.381       .  S
Zr541       O550   2.385       .  S
Zr542       O561   2.434       .  S
Zr542       O554   2.435       .  S
Zr542       O555   2.431       .  S
Zr542       O548   2.401       .  S
Zr542       O549   2.397       .  S
Zr543       O545   2.436       .  S
Zr543       O567   2.436   1_545  S
Zr543       O569   2.431       .  S
Zr543       O547   2.385       .  S
Zr543       O550   2.393       .  S
Zr544       O570   2.436       .  S
Zr544       O571   2.435       .  S
Zr544       O546   2.436       .  S
Zr544       O547   2.391   1_565  S
Zr544       O548   2.387   1_565  S
O545        H582   0.990       .  S
O546        H577   0.990       .  S
O546        H591   0.990       .  S
O548        H574   0.964       .  S
O549       Zr559   2.386       .  S
O550       Zr559   2.384       .  S
O550        H575   0.966       .  S
C551       C3324   1.469       .  S
C552       C3353   1.488       .  S
C553       C3384   1.476       .  S
O554        H590   0.990       .  S
O555        C557   1.284       .  A
O556        C557   1.286       .  A
C557       C3793   1.479       .  S
O558       Zr559   2.442       .  S
O558        H587   0.990       .  S
Zr559       O562   2.439       .  S
Zr559       O563   2.438       .  S
Zr559       O564   2.401       .  S
O560        C565   1.285       .  A
O561        H578   0.990       .  S
O561        H593   0.989       .  S
O562        H579   0.990       .  S
O563        H583   0.990       .  S
O563        H592   0.990       .  S
O564        C565   1.277       .  A
C565       C3333   1.480       .  S
O566        H585   0.990       .  S
O566        H589   0.990       .  S
O567        H581   0.990   1_565  S
O567        H588   0.989       .  S
O568        C572   1.287       .  A
O569        C572   1.284       .  A
O570        H580   0.990       .  S
O571        H584   0.990   1_565  S
C572       C3293   1.487       .  S
Zr595       O596   2.442       .  S
Zr595       O597   2.444       .  S
Zr595       O598   2.459       .  S
Zr595       O601   2.446       .  S
Zr595       O603   2.383       .  S
Zr595       O604   2.386       .  S
Zr595       O605   2.412       .  S
Zr595       O606   2.399       .  S
O596        H652   0.990       .  S
O596        H660   0.991       .  S
O597        C617   1.285       .  A
O598        C619   1.288       .  A
O599       Zr609   2.419       .  S
O599        C618   1.280       .  A
O600       Zr608   2.425       .  S
O600        C619   1.282       .  A
O601        C618   1.288       .  A
O602       Zr610   2.403       .  S
O602        C617   1.277       .  A
O603       Zr608   2.401       .  S
O603       Zr610   2.388       .  S
O604       Zr609   2.393       .  S
O604       Zr610   2.375       .  S
O604        H639   0.966       .  S
O605       Zr608   2.396       .  S
O605       Zr625   2.382       .  S
O605        H642   0.965       .  S
O606       Zr609   2.385       .  S
O606       Zr625   2.386       .  S
Zr607       O632   2.442       .  S
Zr607       O626   2.456       .  S
Zr607       O634   2.458       .  S
Zr607       O622   2.454       .  S
Zr607       O613   2.403       .  S
Zr607       O614   2.415       .  S
Zr607       O615   2.383       .  S
Zr607       O616   2.388       .  S
Zr608       O627   2.436       .  S
Zr608       O620   2.434       .  S
Zr608       O621   2.432       .  S
Zr608       O614   2.394       .  S
Zr608       O615   2.393       .  S
Zr609       O611   2.434       .  S
Zr609       O633   2.439       .  S
Zr609       O635   2.413       .  S
Zr609       O613   2.387       .  S
Zr609       O616   2.392       .  S
Zr610       O636   2.436       .  S
Zr610       O637   2.437       .  S
Zr610       O612   2.437       .  S
Zr610       O613   2.385       .  S
Zr610       O614   2.379       .  S
O611        H648   0.989       .  S
O612        H643   0.990       .  S
O612        H657   0.990       .  S
O614        H640   0.963       .  S
O615       Zr625   2.387       .  S
O616       Zr625   2.386       .  S
O616        H641   0.966       .  S
C617       C3344   1.482       .  S
C618       C3264   1.493       .  S
C619       C3284   1.493       .  S
O620        H656   0.990       .  S
O621        C623   1.284       .  A
O622        C623   1.288       .  A
C623       C3704   1.476       .  S
O624       Zr625   2.442       .  S
O624        H653   0.990       .  S
Zr625       O628   2.437       .  S
Zr625       O629   2.438       .  S
Zr625       O630   2.403       .  S
O626        C631   1.287       .  A
O627        H644   0.990       .  S
O627        H659   0.990       .  S
O628        H645   0.990       .  S
O629        H649   0.990       .  S
O629        H658   0.989       .  S
O630        C631   1.278       .  A
C631       C3313   1.481       .  S
O632        H651   0.990       .  S
O632        H655   0.991       .  S
O633        H647   0.990       .  S
O633        H654   0.990       .  S
O634        C638   1.288       .  A
O635        C638   1.280       .  A
O636        H646   0.990       .  S
O637        H650   0.990       .  S
C638       C3233   1.487       .  S
Zr661       O662   2.441       .  S
Zr661       O663   2.448       .  S
Zr661       O664   2.460       .  S
Zr661       O667   2.433       .  S
Zr661       O669   2.379       .  S
Zr661       O670   2.390       .  S
Zr661       O671   2.408       .  S
Zr661       O672   2.404       .  S
O662        H718   0.990       .  S
O662        H726   0.990       .  S
O663        C683   1.285       .  A
O664        C685   1.289       .  A
O665       Zr675   2.418       .  S
O665        C684   1.282       .  A
O666       Zr674   2.426       .  S
O666        C685   1.283       .  A
O667        C684   1.286       .  A
O668       Zr676   2.412       .  S
O668        C683   1.280       .  A
O669       Zr674   2.403       .  S
O669       Zr676   2.381       .  S
O670       Zr675   2.396       .  S
O670       Zr676   2.372       .  S
O670        H705   0.966       .  S
O671       Zr674   2.399       .  S
O671       Zr691   2.392       .  S
O671        H708   0.965       .  S
O672       Zr675   2.390       .  S
O672       Zr691   2.381       .  S
Zr673       O698   2.442       .  S
Zr673       O692   2.444       .  S
Zr673       O700   2.439       .  S
Zr673       O688   2.444       .  S
Zr673       O679   2.407       .  S
Zr673       O680   2.413       .  S
Zr673       O681   2.378       .  S
Zr673       O682   2.382       .  S
Zr674       O693   2.433       .  S
Zr674       O686   2.434       .  S
Zr674       O687   2.428       .  S
Zr674       O680   2.402       .  S
Zr674       O681   2.388       .  S
Zr675       O677   2.435       .  S
Zr675       O699   2.436       .  S
Zr675       O701   2.428       .  S
Zr675       O679   2.391       .  S
Zr675       O682   2.388       .  S
Zr676       O702   2.436       .  S
Zr676       O703   2.435       .  S
Zr676       O678   2.438       .  S
Zr676       O679   2.398       .  S
Zr676       O680   2.381       .  S
O677        H714   0.990       .  S
O678        H709   0.990       .  S
O678        H723   0.990       .  S
O680        H706   0.963       .  S
O681       Zr691   2.384       .  S
O682       Zr691   2.381       .  S
O682        H707   0.966       .  S
C683       C3184   1.487       .  S
C684       C3213   1.484       .  S
C685       C3273   1.491       .  S
O686        H722   0.990       .  S
O687        C689   1.283       .  A
O688        C689   1.285       .  A
C689       C3984   1.470       .  S
O690       Zr691   2.439       .  S
O690        H719   0.990       .  S
Zr691       O694   2.437       .  S
Zr691       O695   2.439       .  S
Zr691       O696   2.399       .  S
O692        C697   1.284       .  A
O693        H710   0.990       .  S
O693        H725   0.989       .  S
O694        H711   0.990       .  S
O695        H715   0.990       .  S
O695        H724   0.990       .  S
O696        C697   1.277       .  A
C697       C3204   1.467       .  S
O698        H717   0.990       .  S
O698        H721   0.990       .  S
O699        H713   0.990       .  S
O699        H720   0.990       .  S
O700        C704   1.285       .  A
O701        C704   1.284       .  A
O702        H712   0.990       .  S
O703        H716   0.990       .  S
C704       C3153   1.480       .  S
Zr727       O728   2.443       .  S
Zr727       O729   2.446       .  S
Zr727       O730   2.453       .  S
Zr727       O733   2.448       .  S
Zr727       O735   2.383       .  S
Zr727       O736   2.385       .  S
Zr727       O737   2.411       .  S
Zr727       O738   2.400       .  S
O728        H784   0.990       .  S
O728        H792   0.991       .  S
O729        C749   1.284   1_565  A
O730        C751   1.287       .  A
O731       Zr741   2.422       .  S
O731        C750   1.281       .  A
O732       Zr740   2.425       .  S
O732        C751   1.282       .  A
O733        C750   1.288       .  A
O734       Zr742   2.408       .  S
O734        C749   1.279   1_565  A
O735       Zr740   2.399       .  S
O735       Zr742   2.382       .  S
O736       Zr741   2.398       .  S
O736       Zr742   2.380       .  S
O736        H771   0.966       .  S
O737       Zr740   2.399       .  S
O737       Zr757   2.386       .  S
O737        H774   0.965       .  S
O738       Zr741   2.389       .  S
O738       Zr757   2.390       .  S
Zr739       O764   2.442       .  S
Zr739       O758   2.453       .  S
Zr739       O766   2.445       .  S
Zr739       O754   2.443       .  S
Zr739       O745   2.399       .  S
Zr739       O746   2.418       .  S
Zr739       O747   2.379       .  S
Zr739       O748   2.383       .  S
Zr740       O759   2.435       .  S
Zr740       O752   2.436       .  S
Zr740       O753   2.424       .  S
Zr740       O746   2.402       .  S
Zr740       O747   2.394       .  S
Zr741       O743   2.435       .  S
Zr741       O765   2.439       .  S
Zr741       O767   2.425       .  S
Zr741       O745   2.388       .  S
Zr741       O748   2.394       .  S
Zr742       O768   2.436       .  S
Zr742       O769   2.437       .  S
Zr742       O744   2.438       .  S
Zr742       O745   2.388       .  S
Zr742       O746   2.390       .  S
O743        H780   0.990       .  S
O744        H775   0.990       .  S
O744        H789   0.990       .  S
O746        H772   0.964       .  S
O747       Zr757   2.378       .  S
O748       Zr757   2.383       .  S
O748        H773   0.966       .  S
C749       C3193   1.485       .  S
C750       C3133   1.498       .  S
C751       C3373   1.491       .  S
O752        H788   0.990       .  S
O753        C755   1.282       .  A
O754        C755   1.285       .  A
C755       C3864   1.469       .  S
O756       Zr757   2.439       .  S
O756        H785   0.990       .  S
Zr757       O760   2.437       .  S
Zr757       O761   2.438       .  S
Zr757       O762   2.408       .  S
O758        C763   1.285       .  A
O759        H776   0.990       .  S
O759        H791   0.990       .  S
O760        H777   0.990       .  S
O761        H781   0.990       .  S
O761        H790   0.990       .  S
O762        C763   1.278       .  A
C763       C3173   1.472       .  S
O764        H783   0.990       .  S
O764        H787   0.991       .  S
O765        H779   0.990       .  S
O765        H786   0.990       .  S
O766        C770   1.286       .  A
O767        C770   1.283       .  A
O768        H778   0.990       .  S
O769        H782   0.990       .  S
C770       C3124   1.475       .  S
Zr793       O794   2.439       .  S
Zr793       O795   2.453       .  S
Zr793       O796   2.459       .  S
Zr793       O799   2.444       .  S
Zr793       O801   2.381       .  S
Zr793       O802   2.384       .  S
Zr793       O803   2.412   1_565  S
Zr793       O804   2.403   1_565  S
O794        H850   0.989       .  S
O794        H858   0.990       .  S
O795        C815   1.287       .  A
O796        C817   1.287       .  A
O797       Zr807   2.428       .  S
O797        C816   1.284   1_545  A
O798       Zr806   2.434       .  S
O798        C817   1.286   1_545  A
O799        C816   1.286       .  A
O800       Zr808   2.402       .  S
O800        C815   1.278       .  A
O801       Zr806   2.400   1_565  S
O801       Zr808   2.384       .  S
O802       Zr807   2.396   1_565  S
O802       Zr808   2.375       .  S
O802        H837   0.966       .  S
O803       Zr806   2.400       .  S
O803       Zr823   2.386       .  S
O803        H840   0.965       .  S
O804       Zr807   2.386       .  S
O804       Zr823   2.386       .  S
Zr805       O830   2.442       .  S
Zr805       O824   2.453       .  S
Zr805       O832   2.459       .  S
Zr805       O820   2.454       .  S
Zr805       O811   2.401       .  S
Zr805       O812   2.418       .  S
Zr805       O813   2.382       .  S
Zr805       O814   2.389       .  S
Zr806       O825   2.436       .  S
Zr806       O818   2.436   1_545  S
Zr806       O819   2.433       .  S
Zr806       O812   2.401       .  S
Zr806       O813   2.397       .  S
Zr807       O809   2.436       .  S
Zr807       O831   2.439   1_545  S
Zr807       O833   2.424       .  S
Zr807       O811   2.386       .  S
Zr807       O814   2.395       .  S
Zr808       O834   2.435       .  S
Zr808       O835   2.435       .  S
Zr808       O810   2.437       .  S
Zr808       O811   2.385   1_565  S
Zr808       O812   2.382   1_565  S
O809        H846   0.990       .  S
O810        H841   0.990       .  S
O810        H855   0.990       .  S
O812        H838   0.964       .  S
O813       Zr823   2.382       .  S
O814       Zr823   2.383       .  S
O814        H839   0.966       .  S
C815       C3053   1.475       .  S
C816       C3144   1.482       .  S
C817       C3104   1.498       .  S
O818        H854   0.990       .  S
O819        C821   1.284       .  A
O820        C821   1.286       .  A
C821       C3644   1.473       .  S
O822       Zr823   2.439       .  S
O822        H851   0.990       .  S
Zr823       O826   2.437       .  S
Zr823       O827   2.439       .  S
Zr823       O828   2.401       .  S
O824        C829   1.286       .  A
O825        H842   0.990       .  S
O825        H857   0.990       .  S
O826        H843   0.990       .  S
O827        H847   0.990       .  S
O827        H856   0.990       .  S
O828        C829   1.278       .  A
C829       C3073   1.483       .  S
O830        H849   0.990       .  S
O830        H853   0.990       .  S
O831        H845   0.990   1_565  S
O831        H852   0.990       .  S
O832        C836   1.288       .  A
O833        C836   1.285       .  A
O834        H844   0.990       .  S
O835        H848   0.990   1_565  S
C836       C3044   1.487       .  S
Zr859       O860   2.443       .  S
Zr859       O861   2.447       .  S
Zr859       O862   2.448       .  S
Zr859       O865   2.430       .  S
Zr859       O867   2.378       .  S
Zr859       O868   2.387       .  S
Zr859       O869   2.407       .  S
Zr859       O870   2.402       .  S
O860        H916   0.990       .  S
O860        H924   0.991       .  S
O861        C881   1.285       .  A
O862        C883   1.286       .  A
O863       Zr873   2.417       .  S
O863        C882   1.283       .  A
O864       Zr872   2.425       .  S
O864        C883   1.282       .  A
O865        C882   1.283       .  A
O866       Zr874   2.406       .  S
O866        C881   1.278       .  A
O867       Zr872   2.396       .  S
O867       Zr874   2.383       .  S
O868       Zr873   2.396       .  S
O868       Zr874   2.374       .  S
O868        H903   0.966       .  S
O869       Zr872   2.398       .  S
O869       Zr889   2.393       .  S
O869        H906   0.965       .  S
O870       Zr873   2.391       .  S
O870       Zr889   2.382       .  S
Zr871       O896   2.441       .  S
Zr871       O890   2.440       .  S
Zr871       O898   2.447       .  S
Zr871       O886   2.442       .  S
Zr871       O877   2.399       .  S
Zr871       O878   2.411       .  S
Zr871       O879   2.384       .  S
Zr871       O880   2.384       .  S
Zr872       O891   2.436       .  S
Zr872       O884   2.434       .  S
Zr872       O885   2.419       .  S
Zr872       O878   2.403       .  S
Zr872       O879   2.394       .  S
Zr873       O875   2.436       .  S
Zr873       O897   2.439       .  S
Zr873       O899   2.432       .  S
Zr873       O877   2.385       .  S
Zr873       O880   2.392       .  S
Zr874       O900   2.436       .  S
Zr874       O901   2.435       .  S
Zr874       O876   2.436       .  S
Zr874       O877   2.387       .  S
Zr874       O878   2.388       .  S
O875        H912   0.990       .  S
O876        H907   0.990       .  S
O876        H921   0.990       .  S
O878        H904   0.965       .  S
O879       Zr889   2.379       .  S
O880       Zr889   2.382       .  S
O880        H905   0.966       .  S
C881       C3084   1.476       .  S
C882       C3224   1.472       .  S
C883       C3024   1.492       .  S
O884        H920   0.990       .  S
O885        C887   1.282       .  A
O886        C887   1.285       .  A
C887       C3544   1.474       .  S
O888       Zr889   2.440       .  S
O888        H917   0.990       .  S
Zr889       O892   2.438       .  S
Zr889       O893   2.440       .  S
Zr889       O894   2.406       .  S
O890        C895   1.284       .  A
O891        H908   0.990       .  S
O891        H923   0.990       .  S
O892        H909   0.990       .  S
O893        H913   0.990       .  S
O893        H922   0.990       .  S
O894        C895   1.279       .  A
C895       C3064   1.473       .  S
O896        H915   0.990       .  S
O896        H919   0.990       .  S
O897        H911   0.990       .  S
O897        H918   0.990       .  S
O898        C902   1.287       .  A
O899        C902   1.285       .  A
O900        H910   0.990       .  S
O901        H914   0.990       .  S
C902       C2993   1.488       .  S
Zr925       O926   2.442       .  S
Zr925       O927   2.446       .  S
Zr925       O928   2.447       .  S
Zr925       O931   2.434       .  S
Zr925       O933   2.381       .  S
Zr925       O934   2.384       .  S
Zr925       O935   2.409       .  S
Zr925       O936   2.403       .  S
O926        H982   0.990       .  S
O926        H990   0.990       .  S
O927        C947   1.285       .  A
O928        C949   1.286       .  A
O929       Zr939   2.415       .  S
O929        C948   1.282       .  A
O930       Zr938   2.437       .  S
O930        C949   1.285       .  A
O931        C948   1.285       .  A
O932       Zr940   2.406       .  S
O932        C947   1.279       .  A
O933       Zr938   2.401       .  S
O933       Zr940   2.384       .  S
O934       Zr939   2.391       .  S
O934       Zr940   2.370       .  S
O934        H969   0.966       .  S
O935       Zr938   2.398       .  S
O935       Zr955   2.392       .  S
O935        H972   0.966       .  S
O936       Zr939   2.390       .  S
O936       Zr955   2.387       .  S
Zr937       O962   2.441       .  S
Zr937       O956   2.443       .  S
Zr937       O964   2.453       .  S
Zr937       O952   2.445       .  S
Zr937       O943   2.403       .  S
Zr937       O944   2.409       .  S
Zr937       O945   2.385       .  S
Zr937       O946   2.385       .  S
Zr938       O957   2.432       .  S
Zr938       O950   2.434       .  S
Zr938       O951   2.432       .  S
Zr938       O944   2.396       .  S
Zr938       O945   2.392       .  S
Zr939       O941   2.435       .  S
Zr939       O963   2.439       .  S
Zr939       O965   2.420       .  S
Zr939       O943   2.392       .  S
Zr939       O946   2.389       .  S
Zr940       O966   2.434       .  S
Zr940       O967   2.436       .  S
Zr940       O942   2.437       .  S
Zr940       O943   2.392       .  S
Zr940       O944   2.375       .  S
O941        H978   0.990       .  S
O942        H973   0.990       .  S
O942        H987   0.990       .  S
O944        H970   0.964       .  S
O945       Zr955   2.383       .  S
O946       Zr955   2.382       .  S
O946        H971   0.966       .  S
C947       C2953   1.472       .  S
C948       C3253   1.471       .  S
C949       C3013   1.491       .  S
O950        H986   0.990       .  S
O951        C953   1.285       .  A
O952        C953   1.286       .  A
C953       C3493   1.474       .  S
O954       Zr955   2.440       .  S
O954        H983   0.990       .  S
Zr955       O958   2.437       .  S
Zr955       O959   2.440       .  S
Zr955       O960   2.407       .  S
O956        C961   1.285       .  A
O957        H974   0.990       .  S
O957        H989   0.989       .  S
O958        H975   0.990       .  S
O959        H979   0.990       .  S
O959        H988   0.990       .  S
O960        C961   1.280       .  A
C961       C2973   1.481       .  S
O962        H981   0.990       .  S
O962        H985   0.990       .  S
O963        H977   0.990       .  S
O963        H984   0.990       .  S
O964        C968   1.288       .  A
O965        C968   1.281       .  A
O966        H976   0.990       .  S
O967        H980   0.990       .  S
C968       C2933   1.500       .  S
Zr991       O992   2.439       .  S
Zr991       O993   2.444       .  S
Zr991       O994   2.457       .  S
Zr991       O997   2.428       .  S
Zr991       O999   2.379       .  S
Zr991      O1000   2.384       .  S
Zr991      O1001   2.405       .  S
Zr991      O1002   2.403       .  S
O992       H1048   0.989       .  S
O992       H1056   0.990       .  S
O993       C1013   1.285   1_565  A
O994       C1015   1.287       .  A
O995      Zr1005   2.424       .  S
O995       C1014   1.284       .  A
O996      Zr1004   2.425       .  S
O996       C1015   1.284       .  A
O997       C1014   1.283       .  A
O998      Zr1006   2.412       .  S
O998       C1013   1.279   1_565  A
O999      Zr1004   2.402       .  S
O999      Zr1006   2.386       .  S
O1000     Zr1005   2.389       .  S
O1000     Zr1006   2.370       .  S
O1000      H1035   0.966       .  S
O1001     Zr1004   2.393       .  S
O1001     Zr1021   2.389       .  S
O1001      H1038   0.966       .  S
O1002     Zr1005   2.387       .  S
O1002     Zr1021   2.382       .  S
Zr1003     O1028   2.441       .  S
Zr1003     O1022   2.459       .  S
Zr1003     O1030   2.460       .  S
Zr1003     O1018   2.453       .  S
Zr1003     O1009   2.408       .  S
Zr1003     O1010   2.416       .  S
Zr1003     O1011   2.383       .  S
Zr1003     O1012   2.390       .  S
Zr1004     O1023   2.435       .  S
Zr1004     O1016   2.433       .  S
Zr1004     O1017   2.421       .  S
Zr1004     O1010   2.400       .  S
Zr1004     O1011   2.392       .  S
Zr1005     O1007   2.436       .  S
Zr1005     O1029   2.440       .  S
Zr1005     O1031   2.413       .  S
Zr1005     O1009   2.392       .  S
Zr1005     O1012   2.395       .  S
Zr1006     O1032   2.436       .  S
Zr1006     O1033   2.436       .  S
Zr1006     O1008   2.436       .  S
Zr1006     O1009   2.394       .  S
Zr1006     O1010   2.383       .  S
O1007      H1044   0.990       .  S
O1008      H1039   0.990       .  S
O1008      H1053   0.990       .  S
O1010      H1036   0.964       .  S
O1011     Zr1021   2.383       .  S
O1012     Zr1021   2.383       .  S
O1012      H1037   0.966       .  S
C1013      C2984   1.476       .  S
C1014      C3364   1.473       .  S
C1015      C3093   1.497       .  S
O1016      H1052   0.990       .  S
O1017      C1019   1.282       .  A
O1018      C1019   1.288       .  A
C1019      C3424   1.470       .  S
O1020     Zr1021   2.440       .  S
O1020      H1049   0.990       .  S
Zr1021     O1024   2.438       .  S
Zr1021     O1025   2.438       .  S
Zr1021     O1026   2.403       .  S
O1022      C1027   1.287       .  A
O1023      H1040   0.990       .  S
O1023      H1055   0.990       .  S
O1024      H1041   0.990       .  S
O1025      H1045   0.990       .  S
O1025      H1054   0.990       .  S
O1026      C1027   1.278       .  A
C1027      C2964   1.476       .  S
O1028      H1047   0.990       .  S
O1028      H1051   0.990       .  S
O1029      H1043   0.990       .  S
O1029      H1050   0.990       .  S
O1030      C1034   1.287       .  A
O1031      C1034   1.282       .  A
O1032      H1042   0.990       .  S
O1033      H1046   0.990       .  S
C1034      C2913   1.483       .  S
Zr1057     O1058   2.442       .  S
Zr1057     O1059   2.438       .  S
Zr1057     O1060   2.456       .  S
Zr1057     O1063   2.441       .  S
Zr1057     O1065   2.382       .  S
Zr1057     O1066   2.389       .  S
Zr1057     O1067   2.409       .  S
Zr1057     O1068   2.404       .  S
O1058      H1114   0.990       .  S
O1058      H1122   0.990       .  S
O1059      C1079   1.283       .  A
O1060      C1081   1.286       .  A
O1061     Zr1071   2.425       .  S
O1061      C1080   1.285       .  A
O1062     Zr1070   2.422       .  S
O1062      C1081   1.281       .  A
O1063      C1080   1.285       .  A
O1064     Zr1072   2.406       .  S
O1064      C1079   1.278       .  A
O1065     Zr1070   2.398       .  S
O1065     Zr1072   2.385       .  S
O1066     Zr1071   2.393       .  S
O1066     Zr1072   2.376       .  S
O1066      H1101   0.966       .  S
O1067     Zr1070   2.398       .  S
O1067     Zr1087   2.392       .  S
O1067      H1104   0.965       .  S
O1068     Zr1071   2.390       .  S
O1068     Zr1087   2.387       .  S
Zr1069     O1094   2.442       .  S
Zr1069     O1088   2.450       .  S
Zr1069     O1096   2.446       .  S
Zr1069     O1084   2.453       .  S
Zr1069     O1075   2.402       .  S
Zr1069     O1076   2.413       .  S
Zr1069     O1077   2.382       .  S
Zr1069     O1078   2.386       .  S
Zr1070     O1089   2.435       .  S
Zr1070     O1082   2.435       .  S
Zr1070     O1083   2.416       .  S
Zr1070     O1076   2.400       .  S
Zr1070     O1077   2.396       .  S
Zr1071     O1073   2.435       .  S
Zr1071     O1095   2.436       .  S
Zr1071     O1097   2.434       .  S
Zr1071     O1075   2.385       .  S
Zr1071     O1078   2.393       .  S
Zr1072     O1098   2.435       .  S
Zr1072     O1099   2.436       .  S
Zr1072     O1074   2.436       .  S
Zr1072     O1075   2.385       .  S
Zr1072     O1076   2.381       .  S
O1073      H1110   0.990       .  S
O1074      H1105   0.990       .  S
O1074      H1119   0.990       .  S
O1076      H1102   0.963       .  S
O1077     Zr1087   2.383       .  S
O1078     Zr1087   2.383       .  S
O1078      H1103   0.966       .  S
C1079      C2813   1.472   1_545  S
C1080      C2853   1.486       .  S
C1081      C3584   1.478       .  S
O1082      H1118   0.990       .  S
O1083      C1085   1.281       .  A
O1084      C1085   1.286       .  A
C1085      C2873   1.464       .  S
O1086     Zr1087   2.440       .  S
O1086      H1115   0.990       .  S
Zr1087     O1090   2.437       .  S
Zr1087     O1091   2.441       .  S
Zr1087     O1092   2.400       .  S
O1088      C1093   1.285       .  A
O1089      H1106   0.990       .  S
O1089      H1121   0.990       .  S
O1090      H1107   0.990       .  S
O1091      H1111   0.990       .  S
O1091      H1120   0.990       .  S
O1092      C1093   1.277       .  A
C1093      C2844   1.473       .  S
O1094      H1113   0.990       .  S
O1094      H1117   0.990       .  S
O1095      H1109   0.990       .  S
O1095      H1116   0.990       .  S
O1096      C1100   1.286       .  A
O1097      C1100   1.286       .  A
O1098      H1108   0.990       .  S
O1099      H1112   0.990       .  S
C1100      C2904   1.487       .  S
Zr1123     O1124   2.441       .  S
Zr1123     O1125   2.441       .  S
Zr1123     O1126   2.456       .  S
Zr1123     O1129   2.440       .  S
Zr1123     O1131   2.382       .  S
Zr1123     O1132   2.390       .  S
Zr1123     O1133   2.412       .  S
Zr1123     O1134   2.396       .  S
O1124      H1180   0.990       .  S
O1124      H1188   0.990       .  S
O1125      C1145   1.283       .  A
O1126      C1147   1.286       .  A
O1127     Zr1137   2.428       .  S
O1127      C1146   1.284       .  A
O1128     Zr1136   2.413       .  S
O1128      C1147   1.282       .  A
O1129      C1146   1.286       .  A
O1130     Zr1138   2.401       .  S
O1130      C1145   1.279       .  A
O1131     Zr1136   2.399       .  S
O1131     Zr1138   2.382       .  S
O1132     Zr1137   2.390       .  S
O1132     Zr1138   2.375       .  S
O1132      H1167   0.966       .  S
O1133     Zr1136   2.400       .  S
O1133     Zr1153   2.394       .  S
O1133      H1170   0.966       .  S
O1134     Zr1137   2.384       .  S
O1134     Zr1153   2.378       .  S
Zr1135     O1160   2.444       .  S
Zr1135     O1154   2.444       .  S
Zr1135     O1162   2.437       .  S
Zr1135     O1150   2.429       .  S
Zr1135     O1141   2.402       .  S
Zr1135     O1142   2.409       .  S
Zr1135     O1143   2.379       .  S
Zr1135     O1144   2.381       .  S
Zr1136     O1155   2.436       .  S
Zr1136     O1148   2.433       .  S
Zr1136     O1149   2.434       .  S
Zr1136     O1142   2.392       .  S
Zr1136     O1143   2.389       .  S
Zr1137     O1139   2.434       .  S
Zr1137     O1161   2.439       .  S
Zr1137     O1163   2.421       .  S
Zr1137     O1141   2.392       .  S
Zr1137     O1144   2.393       .  S
Zr1138     O1164   2.435       .  S
Zr1138     O1165   2.436       .  S
Zr1138     O1140   2.438       .  S
Zr1138     O1141   2.390       .  S
Zr1138     O1142   2.381       .  S
O1139      H1176   0.990       .  S
O1140      H1171   0.990       .  S
O1140      H1185   0.990       .  S
O1142      H1168   0.964       .  S
O1143     Zr1153   2.383       .  S
O1144     Zr1153   2.383       .  S
O1144      H1169   0.966       .  S
C1145      C2833   1.483       .  S
C1146      C2764   1.481       .  S
C1147      C3524   1.484       .  S
O1148      H1184   0.990       .  S
O1149      C1151   1.284       .  A
O1150      C1151   1.283       .  A
C1151      C2784   1.465       .  S
O1152     Zr1153   2.439       .  S
O1152      H1181   0.990       .  S
Zr1153     O1156   2.437       .  S
Zr1153     O1157   2.439       .  S
Zr1153     O1158   2.402       .  S
O1154      C1159   1.284       .  A
O1155      H1172   0.990       .  S
O1155      H1187   0.990       .  S
O1156      H1173   0.990       .  S
O1157      H1177   0.990       .  S
O1157      H1186   0.990       .  S
O1158      C1159   1.279       .  A
C1159      C2824   1.486       .  S
O1160      H1179   0.990       .  S
O1160      H1183   0.991       .  S
O1161      H1175   0.990       .  S
O1161      H1182   0.990       .  S
O1162      C1166   1.284       .  A
O1163      C1166   1.281       .  A
O1164      H1174   0.990       .  S
O1165      H1178   0.990       .  S
C1166      C2793   1.489       .  S
Zr1189     O1190   2.442       .  S
Zr1189     O1191   2.451       .  S
Zr1189     O1192   2.469       .  S
Zr1189     O1195   2.436       .  S
Zr1189     O1197   2.378       .  S
Zr1189     O1198   2.390       .  S
Zr1189     O1199   2.414       .  S
Zr1189     O1200   2.407       .  S
O1190      H1246   0.990       .  S
O1190      H1254   0.989       .  S
O1191      C1211   1.285       .  A
O1192      C1213   1.289       .  A
O1193     Zr1203   2.430       .  S
O1193      C1212   1.284       .  A
O1194     Zr1202   2.429       .  S
O1194      C1213   1.284       .  A
O1195      C1212   1.286       .  A
O1196     Zr1204   2.391       .  S
O1196      C1211   1.276       .  A
O1197     Zr1202   2.397       .  S
O1197     Zr1204   2.387       .  S
O1198     Zr1203   2.394       .  S
O1198     Zr1204   2.375       .  S
O1198      H1233   0.966       .  S
O1199     Zr1202   2.398       .  S
O1199     Zr1219   2.391       .  S
O1199      H1236   0.964       .  S
O1200     Zr1203   2.388       .  S
O1200     Zr1219   2.386       .  S
Zr1201     O1226   2.441       .  S
Zr1201     O1220   2.449       .  S
Zr1201     O1228   2.448       .  S
Zr1201     O1216   2.465       .  S
Zr1201     O1207   2.403       .  S
Zr1201     O1208   2.410       .  S
Zr1201     O1209   2.382       .  S
Zr1201     O1210   2.386       .  S
Zr1202     O1221   2.435       .  S
Zr1202     O1214   2.435       .  S
Zr1202     O1215   2.423       .  S
Zr1202     O1208   2.401       .  S
Zr1202     O1209   2.399       .  S
Zr1203     O1205   2.436       .  S
Zr1203     O1227   2.438       .  S
Zr1203     O1229   2.429       .  S
Zr1203     O1207   2.388       .  S
Zr1203     O1210   2.394       .  S
Zr1204     O1230   2.436       .  S
Zr1204     O1231   2.435       .  S
Zr1204     O1206   2.436       .  S
Zr1204     O1207   2.383       .  S
Zr1204     O1208   2.376       .  S
O1205      H1242   0.990       .  S
O1206      H1237   0.990       .  S
O1206      H1251   0.990       .  S
O1208      H1234   0.964       .  S
O1209     Zr1219   2.386       .  S
O1210     Zr1219   2.379       .  S
O1210      H1235   0.966       .  S
C1211      C2673   1.485       .  S
C1212      C2713   1.488       .  S
C1213      C3444   1.490       .  S
O1214      H1250   0.990       .  S
O1215      C1217   1.281       .  A
O1216      C1217   1.290       .  A
C1217      C2733   1.498       .  S
O1218     Zr1219   2.440       .  S
O1218      H1247   0.990       .  S
Zr1219     O1222   2.438       .  S
Zr1219     O1223   2.439       .  S
Zr1219     O1224   2.411       .  S
O1220      C1225   1.286       .  A
O1221      H1238   0.990       .  S
O1221      H1253   0.990       .  S
O1222      H1239   0.990       .  S
O1223      H1243   0.990       .  S
O1223      H1252   0.989       .  S
O1224      C1225   1.279       .  A
C1225      C2704   1.481       .  S
O1226      H1245   0.990       .  S
O1226      H1249   0.990       .  S
O1227      H1241   0.990       .  S
O1227      H1248   0.990       .  S
O1228      C1232   1.287       .  A
O1229      C1232   1.284       .  A
O1230      H1240   0.990       .  S
O1231      H1244   0.990       .  S
C1232      C2893   1.481       .  S
Zr1255     O1256   2.442       .  S
Zr1255     O1257   2.459       .  S
Zr1255     O1258   2.475       .  S
Zr1255     O1261   2.452       .  S
Zr1255     O1263   2.383       .  S
Zr1255     O1264   2.394       .  S
Zr1255     O1265   2.417       .  S
Zr1255     O1266   2.403       .  S
O1256      H1312   0.990       .  S
O1256      H1320   0.991       .  S
O1257      C1277   1.287       .  A
O1258      C1279   1.290       .  A
O1259     Zr1269   2.431       .  S
O1259      C1278   1.284       .  A
O1260     Zr1268   2.422       .  S
O1260      C1279   1.282       .  A
O1261      C1278   1.289       .  A
O1262     Zr1270   2.400       .  S
O1262      C1277   1.277       .  A
O1263     Zr1268   2.401       .  S
O1263     Zr1270   2.388       .  S
O1264     Zr1269   2.394       .  S
O1264     Zr1270   2.380       .  S
O1264      H1299   0.965       .  S
O1265     Zr1268   2.402       .  S
O1265     Zr1285   2.393       .  S
O1265      H1302   0.964       .  S
O1266     Zr1269   2.384       .  S
O1266     Zr1285   2.375       .  S
Zr1267     O1292   2.443       .  S
Zr1267     O1286   2.437       .  S
Zr1267     O1294   2.434       .  S
Zr1267     O1282   2.437       .  S
Zr1267     O1273   2.401       .  S
Zr1267     O1274   2.404       .  S
Zr1267     O1275   2.378       .  S
Zr1267     O1276   2.384       .  S
Zr1268     O1287   2.434       .  S
Zr1268     O1280   2.434       .  S
Zr1268     O1281   2.428       .  S
Zr1268     O1274   2.393       .  S
Zr1268     O1275   2.387       .  S
Zr1269     O1271   2.435       .  S
Zr1269     O1293   2.438       .  S
Zr1269     O1295   2.432       .  S
Zr1269     O1273   2.393       .  S
Zr1269     O1276   2.394       .  S
Zr1270     O1296   2.434       .  S
Zr1270     O1297   2.436       .  S
Zr1270     O1272   2.438       .  S
Zr1270     O1273   2.389       .  S
Zr1270     O1274   2.381       .  S
O1271      H1308   0.990       .  S
O1272      H1303   0.990       .  S
O1272      H1317   0.990       .  S
O1274      H1300   0.964       .  S
O1275     Zr1285   2.378       .  S
O1276     Zr1285   2.380       .  S
O1276      H1301   0.966       .  S
C1277      C2693   1.479       .  S
C1278      C2644   1.487       .  S
C1279      C3404   1.482       .  S
O1280      H1316   0.990       .  S
O1281      C1283   1.283       .  A
O1282      C1283   1.284       .  A
C1283      C2653   1.465       .  S
O1284     Zr1285   2.439       .  S
O1284      H1313   0.990       .  S
Zr1285     O1288   2.436       .  S
Zr1285     O1289   2.441       .  S
Zr1285     O1290   2.404       .  S
O1286      C1291   1.284       .  A
O1287      H1304   0.990       .  S
O1287      H1319   0.989       .  S
O1288      H1305   0.990       .  S
O1289      H1309   0.990       .  S
O1289      H1318   0.990       .  S
O1290      C1291   1.279       .  A
C1291      C2684   1.469       .  S
O1292      H1311   0.990       .  S
O1292      H1315   0.990       .  S
O1293      H1307   0.990       .  S
O1293      H1314   0.990       .  S
O1294      C1298   1.283       .  A
O1295      C1298   1.285       .  A
O1296      H1306   0.990       .  S
O1297      H1310   0.990       .  S
C1298      C2804   1.481       .  S
Zr1321     O1322   2.443       .  S
Zr1321     O1323   2.448       .  S
Zr1321     O1324   2.453       .  S
Zr1321     O1327   2.446       .  S
Zr1321     O1329   2.381       .  S
Zr1321     O1330   2.387       .  S
Zr1321     O1331   2.413       .  S
Zr1321     O1332   2.401       .  S
O1322      H1378   0.990       .  S
O1322      H1386   0.991       .  S
O1323      C1343   1.285       .  A
O1324      C1345   1.285       .  A
O1325     Zr1335   2.412       .  S
O1325      C1344   1.281       .  A
O1326     Zr1334   2.435       .  S
O1326      C1345   1.284       .  A
O1327      C1344   1.286       .  A
O1328     Zr1336   2.400       .  S
O1328      C1343   1.278       .  A
O1329     Zr1334   2.400       .  S
O1329     Zr1336   2.385       .  S
O1330     Zr1335   2.392       .  S
O1330     Zr1336   2.378       .  S
O1330      H1365   0.966       .  S
O1331     Zr1334   2.397       .  S
O1331     Zr1351   2.385       .  S
O1331      H1368   0.962       .  S
O1332     Zr1335   2.384       .  S
O1332     Zr1351   2.384       .  S
Zr1333     O1358   2.441       .  S
Zr1333     O1352   2.446       .  S
Zr1333     O1360   2.456       .  S
Zr1333     O1348   2.435       .  S
Zr1333     O1339   2.404       .  S
Zr1333     O1340   2.412       .  S
Zr1333     O1341   2.386       .  S
Zr1333     O1342   2.382       .  S
Zr1334     O1353   2.437       .  S
Zr1334     O1346   2.435       .  S
Zr1334     O1347   2.432       .  S
Zr1334     O1340   2.400       .  S
Zr1334     O1341   2.400       .  S
Zr1335     O1337   2.435       .  S
Zr1335     O1359   2.440       .  S
Zr1335     O1361   2.414       .  S
Zr1335     O1339   2.391       .  S
Zr1335     O1342   2.395       .  S
Zr1336     O1362   2.436       .  S
Zr1336     O1363   2.435       .  S
Zr1336     O1338   2.437       .  S
Zr1336     O1339   2.394       .  S
Zr1336     O1340   2.380       .  S
O1337      H1374   0.990       .  S
O1338      H1369   0.990       .  S
O1338      H1383   0.990       .  S
O1340      H1366   0.965       .  S
O1341     Zr1351   2.377       .  S
O1342     Zr1351   2.382       .  S
O1342      H1367   0.966       .  S
C1343      C2553   1.476       .  S
C1344      C2593   1.468       .  S
C1345      C3913   1.472       .  S
O1346      H1382   0.990       .  S
O1347      C1349   1.285       .  A
O1348      C1349   1.286       .  A
C1349      C2884   1.477       .  S
O1350     Zr1351   2.440       .  S
O1350      H1379   0.990       .  S
Zr1351     O1354   2.437       .  S
Zr1351     O1355   2.435       .  S
Zr1351     O1356   2.410       .  S
O1352      C1357   1.285       .  A
O1353      H1370   0.990       .  S
O1353      H1385   0.990       .  S
O1354      H1371   0.990       .  S
O1355      H1375   0.990       .  S
O1355      H1384   0.990       .  S
O1356      C1357   1.279       .  A
C1357      C2584   1.474       .  S
O1358      H1377   0.990       .  S
O1358      H1381   0.990       .  S
O1359      H1373   0.990       .  S
O1359      H1380   0.990       .  S
O1360      C1364   1.286       .  A
O1361      C1364   1.281       .  A
O1362      H1372   0.990       .  S
O1363      H1376   0.990       .  S
C1364      C2624   1.476       .  S
Zr1387     O1388   2.442       .  S
Zr1387     O1389   2.436       .  S
Zr1387     O1390   2.461       .  S
Zr1387     O1393   2.442       .  S
Zr1387     O1395   2.381       .  S
Zr1387     O1396   2.393       .  S
Zr1387     O1397   2.404       .  S
Zr1387     O1398   2.399       .  S
O1388      H1444   0.990       .  S
O1388      H1452   0.990       .  S
O1389      C1409   1.283       .  A
O1390      C1411   1.288       .  A
O1391     Zr1401   2.411       .  S
O1391      C1410   1.280       .  A
O1392     Zr1400   2.421       .  S
O1392      C1411   1.281       .  A
O1393      C1410   1.287       .  A
O1394     Zr1402   2.415       .  S
O1394      C1409   1.280       .  A
O1395     Zr1400   2.394       .  S
O1395     Zr1402   2.382       .  S
O1396     Zr1401   2.400       .  S
O1396     Zr1402   2.373       .  S
O1396      H1431   0.966       .  S
O1397     Zr1400   2.397       .  S
O1397     Zr1417   2.390       .  S
O1397      H1434   0.965       .  S
O1398     Zr1401   2.392       .  S
O1398     Zr1417   2.378       .  S
Zr1399     O1424   2.442       .  S
Zr1399     O1418   2.456       .  S
Zr1399     O1426   2.460       .  S
Zr1399     O1414   2.434       .  S
Zr1399     O1405   2.399       .  S
Zr1399     O1406   2.417       .  S
Zr1399     O1407   2.382       .  S
Zr1399     O1408   2.380       .  S
Zr1400     O1419   2.436       .  S
Zr1400     O1412   2.435       .  S
Zr1400     O1413   2.415       .  S
Zr1400     O1406   2.398       .  S
Zr1400     O1407   2.393       .  S
Zr1401     O1403   2.435       .  S
Zr1401     O1425   2.439       .  S
Zr1401     O1427   2.432       .  S
Zr1401     O1405   2.386       .  S
Zr1401     O1408   2.391       .  S
Zr1402     O1428   2.435       .  S
Zr1402     O1429   2.435       .  S
Zr1402     O1404   2.437       .  S
Zr1402     O1405   2.389       .  S
Zr1402     O1406   2.392       .  S
O1403      H1440   0.990       .  S
O1404      H1435   0.990       .  S
O1404      H1449   0.990       .  S
O1406      H1432   0.965       .  S
O1407     Zr1417   2.377       .  S
O1408     Zr1417   2.386       .  S
O1408      H1433   0.966       .  S
C1409      C2573   1.472       .  S
C1410      C2513   1.483       .  S
C1411      C3844   1.491       .  S
O1412      H1448   0.990       .  S
O1413      C1415   1.281       .  A
O1414      C1415   1.285       .  A
C1415      C2773   1.471       .  S
O1416     Zr1417   2.440       .  S
O1416      H1445   0.990       .  S
Zr1417     O1420   2.437       .  S
Zr1417     O1421   2.440       .  S
Zr1417     O1422   2.393       .  S
O1418      C1423   1.286       .  A
O1419      H1436   0.990       .  S
O1419      H1451   0.990       .  S
O1420      H1437   0.990       .  S
O1421      H1441   0.990       .  S
O1421      H1450   0.990       .  S
O1422      C1423   1.277       .  A
C1423      C2564   1.490       .  S
O1424      H1443   0.990       .  S
O1424      H1447   0.990       .  S
O1425      H1439   0.990       .  S
O1425      H1446   0.990       .  S
O1426      C1430   1.287       .  A
O1427      C1430   1.285       .  A
O1428      H1438   0.990       .  S
O1429      H1442   0.990       .  S
C1430      C2533   1.491       .  S
Zr1453     O1454   2.439       .  S
Zr1453     O1455   2.462       .  S
Zr1453     O1456   2.477       .  S
Zr1453     O1459   2.448       .  S
Zr1453     O1461   2.382       .  S
Zr1453     O1462   2.392       .  S
Zr1453     O1463   2.414       .  S
Zr1453     O1464   2.406       .  S
O1454      H1510   0.989       .  S
O1454      H1518   0.990       .  S
O1455      C1475   1.288       .  A
O1456      C1477   1.291       .  A
O1457     Zr1467   2.416       .  S
O1457      C1476   1.282       .  A
O1458     Zr1466   2.428       .  S
O1458      C1477   1.285       .  A
O1459      C1476   1.287       .  A
O1460     Zr1468   2.400       .  S
O1460      C1475   1.278       .  A
O1461     Zr1466   2.397       .  S
O1461     Zr1468   2.387       .  S
O1462     Zr1467   2.397       .  S
O1462     Zr1468   2.377       .  S
O1462      H1497   0.965       .  S
O1463     Zr1466   2.402       .  S
O1463     Zr1483   2.376       .  S
O1463      H1500   0.964       .  S
O1464     Zr1467   2.388       .  S
O1464     Zr1483   2.386       .  S
Zr1465     O1490   2.441       .  S
Zr1465     O1484   2.448       .  S
Zr1465     O1492   2.461       .  S
Zr1465     O1480   2.456       .  S
Zr1465     O1471   2.403       .  S
Zr1465     O1472   2.411       .  S
Zr1465     O1473   2.383       .  S
Zr1465     O1474   2.387       .  S
Zr1466     O1485   2.436       .  S
Zr1466     O1478   2.435       .  S
Zr1466     O1479   2.434       .  S
Zr1466     O1472   2.399       .  S
Zr1466     O1473   2.399       .  S
Zr1467     O1469   2.436       .  S
Zr1467     O1491   2.438       .  S
Zr1467     O1493   2.420       .  S
Zr1467     O1471   2.390       .  S
Zr1467     O1474   2.394       .  S
Zr1468     O1494   2.437       .  S
Zr1468     O1495   2.434       .  S
Zr1468     O1470   2.437       .  S
Zr1468     O1471   2.388       .  S
Zr1468     O1472   2.376       .  S
O1469      H1506   0.990       .  S
O1470      H1501   0.990       .  S
O1470      H1515   0.989       .  S
O1472      H1498   0.964       .  S
O1473     Zr1483   2.382       .  S
O1474     Zr1483   2.379       .  S
O1474      H1499   0.966       .  S
C1475      C2464   1.486   1_545  S
C1476      C2493   1.479       .  S
C1477      C3744   1.498       .  S
O1478      H1514   0.990       .  S
O1479      C1481   1.285       .  A
O1480      C1481   1.289       .  A
C1481      C2744   1.486       .  S
O1482     Zr1483   2.439       .  S
O1482      H1511   0.990       .  S
Zr1483     O1486   2.438       .  S
Zr1483     O1487   2.439       .  S
Zr1483     O1488   2.398       .  S
O1484      C1489   1.285       .  A
O1485      H1502   0.990       .  S
O1485      H1517   0.990       .  S
O1486      H1503   0.990       .  S
O1487      H1507   0.990       .  S
O1487      H1516   0.990       .  S
O1488      C1489   1.278       .  A
C1489      C2473   1.480       .  S
O1490      H1509   0.990       .  S
O1490      H1513   0.990       .  S
O1491      H1505   0.990       .  S
O1491      H1512   0.990       .  S
O1492      C1496   1.288       .  A
O1493      C1496   1.282       .  A
O1494      H1504   0.990       .  S
O1495      H1508   0.990       .  S
C1496      C2613   1.481       .  S
Zr1519     O1520   2.441       .  S
Zr1519     O1521   2.445       .  S
Zr1519     O1522   2.453       .  S
Zr1519     O1525   2.448       .  S
Zr1519     O1527   2.382       .  S
Zr1519     O1528   2.387       .  S
Zr1519     O1529   2.415       .  S
Zr1519     O1530   2.401       .  S
O1520      H1576   0.990       .  S
O1520      H1584   0.990       .  S
O1521      C1541   1.284       .  A
O1522      C1543   1.286       .  A
O1523     Zr1533   2.434       .  S
O1523      C1542   1.285       .  A
O1524     Zr1532   2.437       .  S
O1524      C1543   1.285       .  A
O1525      C1542   1.287       .  A
O1526     Zr1534   2.397       .  S
O1526      C1541   1.278       .  A
O1527     Zr1532   2.399       .  S
O1527     Zr1534   2.382       .  S
O1528     Zr1533   2.395       .  S
O1528     Zr1534   2.378       .  S
O1528      H1563   0.966       .  S
O1529     Zr1532   2.402       .  S
O1529     Zr1549   2.393       .  S
O1529      H1566   0.965       .  S
O1530     Zr1533   2.390       .  S
O1530     Zr1549   2.388       .  S
Zr1531     O1556   2.442       .  S
Zr1531     O1550   2.449       .  S
Zr1531     O1558   2.456       .  S
Zr1531     O1546   2.444       .  S
Zr1531     O1537   2.403       .  S
Zr1531     O1538   2.410       .  S
Zr1531     O1539   2.383       .  S
Zr1531     O1540   2.384       .  S
Zr1532     O1551   2.436       .  S
Zr1532     O1544   2.435       .  S
Zr1532     O1545   2.439       .  S
Zr1532     O1538   2.399       .  S
Zr1532     O1539   2.398       .  S
Zr1533     O1535   2.435       .  S
Zr1533     O1557   2.440       .  S
Zr1533     O1559   2.427       .  S
Zr1533     O1537   2.395       .  S
Zr1533     O1540   2.396       .  S
Zr1534     O1560   2.434       .  S
Zr1534     O1561   2.435       .  S
Zr1534     O1536   2.438       .  S
Zr1534     O1537   2.387       .  S
Zr1534     O1538   2.376       .  S
O1535      H1572   0.990       .  S
O1536      H1567   0.990       .  S
O1536      H1581   0.990       .  S
O1538      H1564   0.965       .  S
O1539     Zr1549   2.381       .  S
O1540     Zr1549   2.380       .  S
O1540      H1565   0.966       .  S
C1541      C2484   1.474       .  S
C1542      C2433   1.481       .  S
C1543      C3684   1.482       .  S
O1544      H1580   0.990       .  S
O1545      C1547   1.285       .  A
O1546      C1547   1.287       .  A
C1547      C2664   1.483       .  S
O1548     Zr1549   2.438       .  S
O1548      H1577   0.990       .  S
Zr1549     O1552   2.436       .  S
Zr1549     O1553   2.440       .  S
Zr1549     O1554   2.405       .  S
O1550      C1555   1.285       .  A
O1551      H1568   0.990       .  S
O1551      H1583   0.990       .  S
O1552      H1569   0.990       .  S
O1553      H1573   0.990       .  S
O1553      H1582   0.990       .  S
O1554      C1555   1.279       .  A
C1555      C2453   1.476       .  S
O1556      H1575   0.990       .  S
O1556      H1579   0.991       .  S
O1557      H1571   0.990       .  S
O1557      H1578   0.990       .  S
O1558      C1562   1.287       .  A
O1559      C1562   1.284       .  A
O1560      H1570   0.990       .  S
O1561      H1574   0.990       .  S
C1562      C2544   1.482       .  S
Zr1585     O1586   2.441       .  S
Zr1585     O1587   2.461       .  S
Zr1585     O1588   2.453       .  S
Zr1585     O1591   2.440       .  S
Zr1585     O1593   2.381       .  S
Zr1585     O1594   2.388       .  S
Zr1585     O1595   2.419       .  S
Zr1585     O1596   2.410       .  S
O1586      H1642   0.990       .  S
O1586      H1650   0.989       .  S
O1587      C1607   1.287       .  A
O1588      C1609   1.286       .  A
O1589     Zr1599   2.421       .  S
O1589      C1608   1.284       .  A
O1590     Zr1598   2.433       .  S
O1590      C1609   1.284       .  A
O1591      C1608   1.284       .  A
O1592     Zr1600   2.391       .  S
O1592      C1607   1.276       .  A
O1593     Zr1598   2.399       .  S
O1593     Zr1600   2.388       .  S
O1594     Zr1599   2.391       .  S
O1594     Zr1600   2.379       .  S
O1594      H1629   0.966       .  S
O1595     Zr1598   2.398       .  S
O1595     Zr1615   2.398   1_545  S
O1595      H1632   0.965       .  S
O1596     Zr1599   2.385       .  S
O1596     Zr1615   2.392   1_545  S
Zr1597     O1622   2.441   1_545  S
Zr1597     O1616   2.442   1_545  S
Zr1597     O1624   2.459   1_545  S
Zr1597     O1612   2.443   1_545  S
Zr1597     O1603   2.402       .  S
Zr1597     O1604   2.409       .  S
Zr1597     O1605   2.384   1_545  S
Zr1597     O1606   2.384   1_545  S
Zr1598     O1617   2.435       .  S
Zr1598     O1610   2.435       .  S
Zr1598     O1611   2.426       .  S
Zr1598     O1604   2.400       .  S
Zr1598     O1605   2.393   1_545  S
Zr1599     O1601   2.436       .  S
Zr1599     O1623   2.435       .  S
Zr1599     O1625   2.420       .  S
Zr1599     O1603   2.389       .  S
Zr1599     O1606   2.395   1_545  S
Zr1600     O1626   2.437       .  S
Zr1600     O1627   2.435       .  S
Zr1600     O1602   2.435       .  S
Zr1600     O1603   2.389       .  S
Zr1600     O1604   2.379       .  S
O1601      H1638   0.990       .  S
O1602      H1633   0.990       .  S
O1602      H1647   0.990       .  S
O1604      H1630   0.965       .  S
O1605     Zr1615   2.375       .  S
O1606     Zr1615   2.379       .  S
O1606      H1631   0.966       .  S
C1607      C2384   1.479       .  S
C1608      C2504   1.476       .  S
C1609      C3304   1.484       .  S
O1610      H1646   0.990       .  S
O1611      C1613   1.284       .  A
O1612      C1613   1.288   1_565  A
C1613      C2393   1.483   1_545  S
O1614     Zr1615   2.440       .  S
O1614      H1643   0.990       .  S
Zr1615     O1618   2.437       .  S
Zr1615     O1619   2.442       .  S
Zr1615     O1620   2.426       .  S
O1616      C1621   1.285       .  A
O1617      H1634   0.990       .  S
O1617      H1649   0.990       .  S
O1618      H1635   0.990       .  S
O1619      H1639   0.990       .  S
O1619      H1648   0.990       .  S
O1620      C1621   1.282       .  A
C1621      C2364   1.476       .  S
O1622      H1641   0.990       .  S
O1622      H1645   0.990   1_565  S
O1623      H1637   0.990       .  S
O1623      H1644   0.990       .  S
O1624      C1628   1.288   1_565  A
O1625      C1628   1.283       .  A
O1626      H1636   0.990       .  S
O1627      H1640   0.990       .  S
C1628      C2424   1.492   1_545  S
Zr1651     O1652   2.441       .  S
Zr1651     O1653   2.462       .  S
Zr1651     O1654   2.458       .  S
Zr1651     O1657   2.450       .  S
Zr1651     O1659   2.382       .  S
Zr1651     O1660   2.389       .  S
Zr1651     O1661   2.417       .  S
Zr1651     O1662   2.404       .  S
O1652      H1708   0.990       .  S
O1652      H1716   0.991       .  S
O1653      C1673   1.287       .  A
O1654      C1675   1.286       .  A
O1655     Zr1665   2.442       .  S
O1655      C1674   1.286       .  A
O1656     Zr1664   2.427       .  S
O1656      C1675   1.283       .  A
O1657      C1674   1.287       .  A
O1658     Zr1666   2.399       .  S
O1658      C1673   1.278       .  A
O1659     Zr1664   2.399       .  S
O1659     Zr1666   2.384       .  S
O1660     Zr1665   2.396       .  S
O1660     Zr1666   2.382       .  S
O1660      H1695   0.966       .  S
O1661     Zr1664   2.399       .  S
O1661     Zr1681   2.394       .  S
O1661      H1698   0.964       .  S
O1662     Zr1665   2.385       .  S
O1662     Zr1681   2.390       .  S
Zr1663     O1688   2.442       .  S
Zr1663     O1682   2.446       .  S
Zr1663     O1690   2.440       .  S
Zr1663     O1678   2.437       .  S
Zr1663     O1669   2.407       .  S
Zr1663     O1670   2.406       .  S
Zr1663     O1671   2.379       .  S
Zr1663     O1672   2.382       .  S
Zr1664     O1683   2.436       .  S
Zr1664     O1676   2.434       .  S
Zr1664     O1677   2.426       .  S
Zr1664     O1670   2.397       .  S
Zr1664     O1671   2.394       .  S
Zr1665     O1667   2.435       .  S
Zr1665     O1689   2.438       .  S
Zr1665     O1691   2.431       .  S
Zr1665     O1669   2.395       .  S
Zr1665     O1672   2.397       .  S
Zr1666     O1692   2.434       .  S
Zr1666     O1693   2.436       .  S
Zr1666     O1668   2.438       .  S
Zr1666     O1669   2.394       .  S
Zr1666     O1670   2.380       .  S
O1667      H1704   0.990       .  S
O1668      H1699   0.990       .  S
O1668      H1713   0.990       .  S
O1670      H1696   0.965       .  S
O1671     Zr1681   2.376       .  S
O1672     Zr1681   2.375       .  S
O1672      H1697   0.966       .  S
C1673      C2353   1.488       .  S
C1674      C2444   1.492       .  S
C1675      C3244   1.472       .  S
O1676      H1712   0.990       .  S
O1677      C1679   1.282       .  A
O1678      C1679   1.287       .  A
C1679      C2313   1.492       .  S
O1680     Zr1681   2.439       .  S
O1680      H1709   0.990       .  S
Zr1681     O1684   2.438       .  S
Zr1681     O1685   2.439       .  S
Zr1681     O1686   2.421       .  S
O1682      C1687   1.285       .  A
O1683      H1700   0.990       .  S
O1683      H1715   0.989       .  S
O1684      H1701   0.990       .  S
O1685      H1705   0.990       .  S
O1685      H1714   0.990       .  S
O1686      C1687   1.282       .  A
C1687      C2373   1.488       .  S
O1688      H1707   0.990       .  S
O1688      H1711   0.990       .  S
O1689      H1703   0.990       .  S
O1689      H1710   0.990       .  S
O1690      C1694   1.285       .  A
O1691      C1694   1.284       .  A
O1692      H1702   0.990       .  S
O1693      H1706   0.990       .  S
C1694      C2333   1.483       .  S
Zr1717     O1718   2.441       .  S
Zr1717     O1719   2.440       .  S
Zr1717     O1720   2.467       .  S
Zr1717     O1723   2.447       .  S
Zr1717     O1725   2.381       .  S
Zr1717     O1726   2.392       .  S
Zr1717     O1727   2.410       .  S
Zr1717     O1728   2.402       .  S
O1718      H1774   0.989       .  S
O1718      H1782   0.990       .  S
O1719      C1739   1.283       .  A
O1720      C1741   1.288       .  A
O1721     Zr1731   2.407       .  S
O1721      C1740   1.281       .  A
O1722     Zr1730   2.417       .  S
O1722      C1741   1.283       .  A
O1723      C1740   1.287       .  A
O1724     Zr1732   2.404       .  S
O1724      C1739   1.278       .  A
O1725     Zr1730   2.394       .  S
O1725     Zr1732   2.381       .  S
O1726     Zr1731   2.398       .  S
O1726     Zr1732   2.379       .  S
O1726      H1761   0.966       .  S
O1727     Zr1730   2.400       .  S
O1727     Zr1747   2.388       .  S
O1727      H1764   0.965       .  S
O1728     Zr1731   2.393       .  S
O1728     Zr1747   2.383       .  S
Zr1729     O1754   2.441       .  S
Zr1729     O1748   2.450       .  S
Zr1729     O1756   2.442       .  S
Zr1729     O1744   2.446       .  S
Zr1729     O1735   2.398       .  S
Zr1729     O1736   2.412       .  S
Zr1729     O1737   2.378       .  S
Zr1729     O1738   2.386       .  S
Zr1730     O1749   2.435       .  S
Zr1730     O1742   2.435       .  S
Zr1730     O1743   2.422       .  S
Zr1730     O1736   2.394       .  S
Zr1730     O1737   2.391       .  S
Zr1731     O1733   2.436       .  S
Zr1731     O1755   2.437       .  S
Zr1731     O1757   2.433       .  S
Zr1731     O1735   2.381       .  S
Zr1731     O1738   2.392       .  S
Zr1732     O1758   2.436       .  S
Zr1732     O1759   2.437       .  S
Zr1732     O1734   2.436       .  S
Zr1732     O1735   2.384       .  S
Zr1732     O1736   2.388       .  S
O1733      H1770   0.990       .  S
O1734      H1765   0.990       .  S
O1734      H1779   0.990       .  S
O1736      H1762   0.965       .  S
O1737     Zr1747   2.381       .  S
O1738     Zr1747   2.387       .  S
O1738      H1763   0.966       .  S
C1739      C2273   1.471       .  S
C1740      C2604   1.473       .  S
C1741      C3164   1.488       .  S
O1742      H1778   0.990       .  S
O1743      C1745   1.283       .  A
O1744      C1745   1.285       .  A
C1745      C2293   1.481       .  S
O1746     Zr1747   2.441       .  S
O1746      H1775   0.990       .  S
Zr1747     O1750   2.438       .  S
Zr1747     O1751   2.439       .  S
Zr1747     O1752   2.399       .  S
O1748      C1753   1.285       .  A
O1749      H1766   0.990       .  S
O1749      H1781   0.990       .  S
O1750      H1767   0.990       .  S
O1751      H1771   0.990       .  S
O1751      H1780   0.990       .  S
O1752      C1753   1.278       .  A
C1753      C2253   1.481       .  S
O1754      H1773   0.990       .  S
O1754      H1777   0.990       .  S
O1755      H1769   0.990       .  S
O1755      H1776   0.990       .  S
O1756      C1760   1.286       .  A
O1757      C1760   1.284       .  A
O1758      H1768   0.990       .  S
O1759      H1772   0.990       .  S
C1760      C2344   1.481       .  S
Zr1783     O1784   2.440       .  S
Zr1783     O1785   2.443       .  S
Zr1783     O1786   2.448       .  S
Zr1783     O1789   2.438       .  S
Zr1783     O1791   2.383       .  S
Zr1783     O1792   2.383       .  S
Zr1783     O1793   2.411       .  S
Zr1783     O1794   2.400       .  S
O1784      H1840   0.989       .  S
O1784      H1848   0.990       .  S
O1785      C1805   1.285       .  A
O1786      C1807   1.285       .  A
O1787     Zr1797   2.416       .  S
O1787      C1806   1.282       .  A
O1788     Zr1796   2.430       .  S
O1788      C1807   1.285       .  A
O1789      C1806   1.284       .  A
O1790     Zr1798   2.408       .  S
O1790      C1805   1.278       .  A
O1791     Zr1796   2.399       .  S
O1791     Zr1798   2.383       .  S
O1792     Zr1797   2.394       .  S
O1792     Zr1798   2.373       .  S
O1792      H1827   0.966       .  S
O1793     Zr1796   2.397       .  S
O1793     Zr1813   2.394       .  S
O1793      H1830   0.966       .  S
O1794     Zr1797   2.388       .  S
O1794     Zr1813   2.386       .  S
Zr1795     O1820   2.442       .  S
Zr1795     O1814   2.445   1_565  S
Zr1795     O1822   2.454       .  S
Zr1795     O1810   2.443       .  S
Zr1795     O1801   2.401       .  S
Zr1795     O1802   2.412       .  S
Zr1795     O1803   2.383       .  S
Zr1795     O1804   2.384       .  S
Zr1796     O1815   2.435       .  S
Zr1796     O1808   2.434       .  S
Zr1796     O1809   2.432       .  S
Zr1796     O1802   2.400       .  S
Zr1796     O1803   2.391       .  S
Zr1797     O1799   2.435       .  S
Zr1797     O1821   2.439       .  S
Zr1797     O1823   2.422       .  S
Zr1797     O1801   2.391       .  S
Zr1797     O1804   2.393       .  S
Zr1798     O1824   2.435       .  S
Zr1798     O1825   2.435       .  S
Zr1798     O1800   2.436       .  S
Zr1798     O1801   2.392       .  S
Zr1798     O1802   2.381       .  S
O1799      H1836   0.990       .  S
O1800      H1831   0.990       .  S
O1800      H1845   0.990       .  S
O1802      H1828   0.964       .  S
O1803     Zr1813   2.380       .  S
O1804     Zr1813   2.385       .  S
O1804      H1829   0.966       .  S
C1805      C2264   1.477       .  S
C1806      C2524   1.477       .  S
C1807      C3113   1.490       .  S
O1808      H1844   0.990       .  S
O1809      C1811   1.284       .  A
O1810      C1811   1.286       .  A
C1811      C2233   1.474       .  S
O1812     Zr1813   2.441       .  S
O1812      H1841   0.990       .  S
Zr1813     O1816   2.438       .  S
Zr1813     O1817   2.438       .  S
Zr1813     O1818   2.409   1_565  S
O1814      C1819   1.285       .  A
O1815      H1832   0.990       .  S
O1815      H1847   0.990       .  S
O1816      H1833   0.990   1_565  S
O1817      H1837   0.990       .  S
O1817      H1846   0.990       .  S
O1818      C1819   1.279       .  A
C1819      C2284   1.476       .  S
O1820      H1839   0.990       .  S
O1820      H1843   0.991       .  S
O1821      H1835   0.990       .  S
O1821      H1842   0.990       .  S
O1822      C1826   1.288       .  A
O1823      C1826   1.281       .  A
O1824      H1834   0.990       .  S
O1825      H1838   0.990       .  S
C1826      C2413   1.498       .  S
Zr1849     O1850   2.441       .  S
Zr1849     O1851   2.451       .  S
Zr1849     O1852   2.470       .  S
Zr1849     O1855   2.456       .  S
Zr1849     O1857   2.382       .  S
Zr1849     O1858   2.394       .  S
Zr1849     O1859   2.413       .  S
Zr1849     O1860   2.404       .  S
O1850      H1906   0.990       .  S
O1850      H1914   0.991       .  S
O1851      C1871   1.286       .  A
O1852      C1873   1.290       .  A
O1853     Zr1863   2.421       .  S
O1853      C1872   1.283       .  A
O1854     Zr1862   2.427       .  S
O1854      C1873   1.283       .  A
O1855      C1872   1.289       .  A
O1856     Zr1864   2.406       .  S
O1856      C1871   1.279       .  A
O1857     Zr1862   2.397       .  S
O1857     Zr1864   2.387       .  S
O1858     Zr1863   2.396       .  S
O1858     Zr1864   2.377       .  S
O1858      H1893   0.966       .  S
O1859     Zr1862   2.401       .  S
O1859     Zr1879   2.393   1_545  S
O1859      H1896   0.964       .  S
O1860     Zr1863   2.390       .  S
O1860     Zr1879   2.382   1_545  S
Zr1861     O1886   2.442       .  S
Zr1861     O1880   2.437       .  S
Zr1861     O1888   2.445       .  S
Zr1861     O1876   2.435       .  S
Zr1861     O1867   2.404   1_565  S
Zr1861     O1868   2.403   1_565  S
Zr1861     O1869   2.382       .  S
Zr1861     O1870   2.382       .  S
Zr1862     O1881   2.436   1_545  S
Zr1862     O1874   2.435       .  S
Zr1862     O1875   2.429       .  S
Zr1862     O1868   2.396       .  S
Zr1862     O1869   2.395   1_545  S
Zr1863     O1865   2.433       .  S
Zr1863     O1887   2.438       .  S
Zr1863     O1889   2.431       .  S
Zr1863     O1867   2.388       .  S
Zr1863     O1870   2.394   1_545  S
Zr1864     O1890   2.436       .  S
Zr1864     O1891   2.436       .  S
Zr1864     O1866   2.436       .  S
Zr1864     O1867   2.391       .  S
Zr1864     O1868   2.383       .  S
O1865      H1902   0.990       .  S
O1866      H1897   0.990       .  S
O1866      H1911   0.989       .  S
O1868      H1894   0.965       .  S
O1869     Zr1879   2.379       .  S
O1870     Zr1879   2.379       .  S
O1870      H1895   0.966       .  S
C1871      C2204   1.478       .  S
C1872      C2864   1.480       .  S
C1873      C3033   1.497       .  S
O1874      H1910   0.990       .  S
O1875      C1877   1.284   1_545  A
O1876      C1877   1.285       .  A
C1877      C2244   1.472       .  S
O1878     Zr1879   2.439       .  S
O1878      H1907   0.990       .  S
Zr1879     O1882   2.437       .  S
Zr1879     O1883   2.441       .  S
Zr1879     O1884   2.410       .  S
O1880      C1885   1.283       .  A
O1881      H1898   0.990   1_565  S
O1881      H1913   0.990       .  S
O1882      H1899   0.990       .  S
O1883      H1903   0.990       .  S
O1883      H1912   0.990       .  S
O1884      C1885   1.279       .  A
C1885      C2173   1.470       .  S
O1886      H1905   0.990       .  S
O1886      H1909   0.990       .  S
O1887      H1901   0.990       .  S
O1887      H1908   0.990       .  S
O1888      C1892   1.285       .  A
O1889      C1892   1.284   1_545  A
O1890      H1900   0.990       .  S
O1891      H1904   0.990       .  S
C1892      C2224   1.487       .  S
Zr1915     O1916   2.442       .  S
Zr1915     O1917   2.450       .  S
Zr1915     O1918   2.464       .  S
Zr1915     O1921   2.445       .  S
Zr1915     O1923   2.380       .  S
Zr1915     O1924   2.390       .  S
Zr1915     O1925   2.413       .  S
Zr1915     O1926   2.400       .  S
O1916      H1972   0.989       .  S
O1916      H1980   0.990       .  S
O1917      C1937   1.285       .  A
O1918      C1939   1.288       .  A
O1919     Zr1929   2.432       .  S
O1919      C1938   1.285       .  A
O1920     Zr1928   2.435       .  S
O1920      C1939   1.285       .  A
O1921      C1938   1.286       .  A
O1922     Zr1930   2.393       .  S
O1922      C1937   1.276       .  A
O1923     Zr1928   2.400       .  S
O1923     Zr1930   2.388       .  S
O1924     Zr1929   2.397       .  S
O1924     Zr1930   2.379       .  S
O1924      H1959   0.966       .  S
O1925     Zr1928   2.397       .  S
O1925     Zr1945   2.385       .  S
O1925      H1962   0.964       .  S
O1926     Zr1929   2.382       .  S
O1926     Zr1945   2.380       .  S
Zr1927     O1952   2.442       .  S
Zr1927     O1946   2.459       .  S
Zr1927     O1954   2.457       .  S
Zr1927     O1942   2.455       .  S
Zr1927     O1933   2.406       .  S
Zr1927     O1934   2.413       .  S
Zr1927     O1935   2.380       .  S
Zr1927     O1936   2.387       .  S
Zr1928     O1947   2.435       .  S
Zr1928     O1940   2.433       .  S
Zr1928     O1941   2.432       .  S
Zr1928     O1934   2.401       .  S
Zr1928     O1935   2.396       .  S
Zr1929     O1931   2.435       .  S
Zr1929     O1953   2.439       .  S
Zr1929     O1955   2.425       .  S
Zr1929     O1933   2.393       .  S
Zr1929     O1936   2.400       .  S
Zr1930     O1956   2.436       .  S
Zr1930     O1957   2.435       .  S
Zr1930     O1932   2.437       .  S
Zr1930     O1933   2.386       .  S
Zr1930     O1934   2.380       .  S
O1931      H1968   0.990       .  S
O1932      H1963   0.990       .  S
O1932      H1977   0.990       .  S
O1934      H1960   0.964       .  S
O1935     Zr1945   2.381       .  S
O1936     Zr1945   2.380       .  S
O1936      H1961   0.966       .  S
C1937      C2184   1.480       .  S
C1938      C2753   1.474       .  S
C1939      C3004   1.487       .  S
O1940      H1976   0.990       .  S
O1941      C1943   1.285       .  A
O1942      C1943   1.289       .  A
C1943      C2304   1.488       .  S
O1944     Zr1945   2.439       .  S
O1944      H1973   0.990       .  S
Zr1945     O1948   2.437       .  S
Zr1945     O1949   2.439       .  S
Zr1945     O1950   2.403       .  S
O1946      C1951   1.287       .  A
O1947      H1964   0.990       .  S
O1947      H1979   0.990       .  S
O1948      H1965   0.990       .  S
O1949      H1969   0.990       .  S
O1949      H1978   0.990       .  S
O1950      C1951   1.279       .  A
C1951      C2193   1.493       .  S
O1952      H1971   0.990       .  S
O1952      H1975   0.991       .  S
O1953      H1967   0.990       .  S
O1953      H1974   0.990       .  S
O1954      C1958   1.287       .  A
O1955      C1958   1.284       .  A
O1956      H1966   0.990       .  S
O1957      H1970   0.990       .  S
C1958      C2164   1.484       .  S
Zr1981     O1982   2.440       .  S
Zr1981     O1983   2.459       .  S
Zr1981     O1984   2.457       .  S
Zr1981     O1987   2.454       .  S
Zr1981     O1989   2.381       .  S
Zr1981     O1990   2.391       .  S
Zr1981     O1991   2.415       .  S
Zr1981     O1992   2.399       .  S
O1982      H2038   0.990       .  S
O1982      H2046   0.990       .  S
O1983      C2003   1.287       .  A
O1984      C2005   1.286       .  A
O1985     Zr1995   2.427       .  S
O1985      C2004   1.285       .  A
O1986     Zr1994   2.429       .  S
O1986      C2005   1.283       .  A
O1987      C2004   1.288       .  A
O1988     Zr1996   2.402       .  S
O1988      C2003   1.277       .  A
O1989     Zr1994   2.394       .  S
O1989     Zr1996   2.383       .  S
O1990     Zr1995   2.397       .  S
O1990     Zr1996   2.382       .  S
O1990      H2025   0.966       .  S
O1991     Zr1994   2.398       .  S
O1991     Zr2011   2.392       .  S
O1991      H2028   0.965       .  S
O1992     Zr1995   2.383       .  S
O1992     Zr2011   2.380       .  S
Zr1993     O2018   2.438       .  S
Zr1993     O2012   2.451       .  S
Zr1993     O2020   2.463       .  S
Zr1993     O2008   2.445       .  S
Zr1993     O1999   2.403       .  S
Zr1993     O2000   2.409       .  S
Zr1993     O2001   2.384       .  S
Zr1993     O2002   2.383       .  S
Zr1994     O2013   2.435       .  S
Zr1994     O2006   2.435       .  S
Zr1994     O2007   2.424       .  S
Zr1994     O2000   2.399       .  S
Zr1994     O2001   2.395       .  S
Zr1995     O1997   2.436       .  S
Zr1995     O2019   2.437       .  S
Zr1995     O2021   2.426       .  S
Zr1995     O1999   2.390       .  S
Zr1995     O2002   2.397       .  S
Zr1996     O2022   2.436       .  S
Zr1996     O2023   2.435       .  S
Zr1996     O1998   2.437       .  S
Zr1996     O1999   2.389       .  S
Zr1996     O2000   2.384       .  S
O1997      H2034   0.990       .  S
O1998      H2029   0.990       .  S
O1998      H2043   0.990       .  S
O2000      H2026   0.965       .  S
O2001     Zr2011   2.377       .  S
O2002     Zr2011   2.382       .  S
O2002      H2027   0.966       .  S
C2003      C2144   1.476       .  S
C2004      C2724   1.484       .  S
C2005      C2944   1.477       .  S
O2006      H2042   0.990       .  S
O2007      C2009   1.283       .  A
O2008      C2009   1.286       .  A
C2009      C2324   1.477       .  S
O2010     Zr2011   2.439       .  S
O2010      H2039   0.990       .  S
Zr2011     O2014   2.437       .  S
Zr2011     O2015   2.441       .  S
Zr2011     O2016   2.408       .  S
O2012      C2017   1.286       .  A
O2013      H2030   0.990       .  S
O2013      H2045   0.990       .  S
O2014      H2031   0.990       .  S
O2015      H2035   0.990       .  S
O2015      H2044   0.990       .  S
O2016      C2017   1.280       .  A
C2017      C2113   1.483       .  S
O2018      H2037   0.989       .  S
O2018      H2041   0.990       .  S
O2019      H2033   0.990       .  S
O2019      H2040   0.990       .  S
O2020      C2024   1.288       .  A
O2021      C2024   1.285       .  A
O2022      H2032   0.990       .  S
O2023      H2036   0.990       .  S
C2024      C2153   1.501       .  S
Zr2047     O2048   2.443       .  S
Zr2047     O2049   2.454       .  S
Zr2047     O2050   2.443       .  S
Zr2047     O2053   2.453       .  S
Zr2047     O2055   2.383       .  S
Zr2047     O2056   2.388       .  S
Zr2047     O2057   2.417       .  S
Zr2047     O2058   2.396       .  S
O2048      H2104   0.990       .  S
O2048      H2112   0.991       .  S
O2049      C2069   1.286       .  A
O2050      C2071   1.284       .  A
O2051     Zr2061   2.427       .  S
O2051      C2070   1.284       .  A
O2052     Zr2060   2.442       .  S
O2052      C2071   1.286       .  A
O2053      C2070   1.287       .  A
O2054     Zr2062   2.399       .  S
O2054      C2069   1.277       .  A
O2055     Zr2060   2.399       .  S
O2055     Zr2062   2.384       .  S
O2056     Zr2061   2.398       .  S
O2056     Zr2062   2.383       .  S
O2056      H2091   0.966       .  S
O2057     Zr2060   2.399       .  S
O2057     Zr2077   2.392       .  S
O2057      H2094   0.965       .  S
O2058     Zr2061   2.380       .  S
O2058     Zr2077   2.378       .  S
Zr2059     O2084   2.442       .  S
Zr2059     O2078   2.450       .  S
Zr2059     O2086   2.459       .  S
Zr2059     O2074   2.452       .  S
Zr2059     O2065   2.402       .  S
Zr2059     O2066   2.408       .  S
Zr2059     O2067   2.384       .  S
Zr2059     O2068   2.385       .  S
Zr2060     O2079   2.435       .  S
Zr2060     O2072   2.434       .  S
Zr2060     O2073   2.437       .  S
Zr2060     O2066   2.402       .  S
Zr2060     O2067   2.394       .  S
Zr2061     O2063   2.435       .  S
Zr2061     O2085   2.438       .  S
Zr2061     O2087   2.426       .  S
Zr2061     O2065   2.391       .  S
Zr2061     O2068   2.396       .  S
Zr2062     O2088   2.436       .  S
Zr2062     O2089   2.434       .  S
Zr2062     O2064   2.436       .  S
Zr2062     O2065   2.388       .  S
Zr2062     O2066   2.383       .  S
O2063      H2100   0.990       .  S
O2064      H2095   0.990       .  S
O2064      H2109   0.990       .  S
O2066      H2092   0.965       .  S
O2067     Zr2077   2.378       .  S
O2068     Zr2077   2.381       .  S
O2068      H2093   0.966       .  S
C2069      C2124   1.477       .  S
C2070      C2633   1.481       .  S
C2071      C2924   1.482       .  S
O2072      H2108   0.990       .  S
O2073      C2075   1.286       .  A
O2074      C2075   1.288       .  A
C2075      C2404   1.485       .  S
O2076     Zr2077   2.438       .  S
O2076      H2105   0.990       .  S
Zr2077     O2080   2.437       .  S
Zr2077     O2081   2.439       .  S
Zr2077     O2082   2.406       .  S
O2078      C2083   1.286   1_565  A
O2079      H2096   0.990       .  S
O2079      H2111   0.990       .  S
O2080      H2097   0.990       .  S
O2081      H2101   0.990       .  S
O2081      H2110   0.990       .  S
O2082      C2083   1.280   1_565  A
C2083      C2133   1.489       .  S
O2084      H2103   0.990       .  S
O2084      H2107   0.990       .  S
O2085      H2099   0.990       .  S
O2085      H2106   0.990       .  S
O2086      C2090   1.288       .  A
O2087      C2090   1.283       .  A
O2088      H2098   0.990       .  S
O2089      H2102   0.990       .  S
C2090      C2213   1.489       .  S
C2113      C2114   1.413       .  A
C2113      C2118   1.408       .  A
C2114      C2115   1.402       .  A
C2114     Br2130   1.917       .  S
C2115      C2116   1.402       .  A
C2115      H2119   1.084       .  S
C2116      C2120   1.476       .  S
C2116      C2117   1.404       .  A
C2117      C2118   1.397       .  A
C2117     Br2129   1.918       .  S
C2118      H2121   1.084       .  S
C2120      C2122   1.399       .  A
C2120      C2126   1.407       .  A
C2122      C2123   1.399       .  A
C2122      H2127   1.084       .  S
C2123      C2124   1.415       .  A
C2123     Br2131   1.921       .  S
C2124      C2125   1.403       .  A
C2125      C2126   1.400       .  A
C2125      H2128   1.083       .  S
C2126     Br2132   1.917       .  S
C2133      C2134   1.416       .  A
C2133      C2138   1.410       .  A
C2134      C2135   1.404       .  A
C2134     Br2150   1.921       .  S
C2135      C2136   1.403       .  A
C2135      H2139   1.083       .  S
C2136      C2140   1.477       .  S
C2136      C2137   1.402       .  A
C2137      C2138   1.395       .  A
C2137     Br2149   1.920       .  S
C2138      H2141   1.083       .  S
C2140      C2142   1.400       .  A
C2140      C2146   1.408       .  A
C2142      C2143   1.398       .  A
C2142      H2147   1.084       .  S
C2143      C2144   1.413       .  A
C2143     Br2151   1.921       .  S
C2144      C2145   1.404       .  A
C2145      C2146   1.402       .  A
C2145      H2148   1.083       .  S
C2146     Br2152   1.918       .  S
C2153      C2154   1.419       .  A
C2153      C2158   1.413       .  A
C2154      C2155   1.403       .  A
C2154     Br2170   1.915       .  S
C2155      C2156   1.402       .  A
C2155      H2159   1.084       .  S
C2156      C2160   1.486       .  S
C2156      C2157   1.406       .  A
C2157      C2158   1.400       .  A
C2157     Br2169   1.920       .  S
C2158      H2161   1.083       .  S
C2160      C2162   1.402       .  A
C2160      C2166   1.411       .  A
C2162      C2163   1.399       .  A
C2162      H2167   1.084       .  S
C2163      C2164   1.414       .  A
C2163     Br2171   1.921       .  S
C2164      C2165   1.405       .  A
C2165      C2166   1.403       .  A
C2165      H2168   1.084       .  S
C2166     Br2172   1.918       .  S
C2173      C2174   1.410       .  A
C2173      C2178   1.404       .  A
C2174      C2175   1.400       .  A
C2174     Br2190   1.920       .  S
C2175      C2176   1.403       .  A
C2175      H2179   1.084       .  S
C2176      C2180   1.470       .  S
C2176      C2177   1.403       .  A
C2177      C2178   1.394       .  A
C2177     Br2189   1.918       .  S
C2178      H2181   1.084       .  S
C2180      C2182   1.400       .  A
C2180      C2186   1.402       .  A
C2182      C2183   1.398       .  A
C2182      H2187   1.084       .  S
C2183      C2184   1.413       .  A
C2183     Br2191   1.919       .  S
C2184      C2185   1.410       .  A
C2185      C2186   1.396       .  A
C2185      H2188   1.084       .  S
C2186     Br2192   1.920       .  S
C2193      C2194   1.416       .  A
C2193      C2198   1.412       .  A
C2194      C2195   1.403       .  A
C2194     Br2210   1.919       .  S
C2195      C2196   1.402       .  A
C2195      H2199   1.084       .  S
C2196      C2200   1.479       .  S
C2196      C2197   1.404       .  A
C2197      C2198   1.398       .  A
C2197     Br2209   1.920       .  S
C2198      H2201   1.083       .  S
C2200      C2202   1.401       .  A
C2200      C2206   1.409       .  A
C2202      C2203   1.400       .  A
C2202      H2207   1.084       .  S
C2203      C2204   1.413       .  A
C2203     Br2211   1.920       .  S
C2204      C2205   1.403       .  A
C2205      C2206   1.400       .  A
C2205      H2208   1.083       .  S
C2206     Br2212   1.917       .  S
C2213      C2214   1.415       .  A
C2213      C2218   1.408       .  A
C2214      C2215   1.399       .  A
C2214     Br2230   1.918       .  S
C2215      C2216   1.402       .  A
C2215      H2219   1.084       .  S
C2216      C2220   1.489       .  S
C2216      C2217   1.410       .  A
C2217      C2218   1.404       .  A
C2217     Br2229   1.918       .  S
C2218      H2221   1.083       .  S
C2220      C2222   1.405       .  A
C2220      C2226   1.410   1_565  A
C2222      C2223   1.405       .  A
C2222      H2227   1.083       .  S
C2223      C2224   1.414       .  A
C2223     Br2231   1.920       .  S
C2224      C2225   1.405   1_565  A
C2225      C2226   1.399       .  A
C2225      H2228   1.084       .  S
C2226     Br2232   1.920       .  S
C2233      C2234   1.410       .  A
C2233      C2238   1.403       .  A
C2234      C2235   1.397       .  A
C2234     Br2250   1.921       .  S
C2235      C2236   1.404       .  A
C2235      H2239   1.083       .  S
C2236      C2240   1.486   1_655  S
C2236      C2237   1.413       .  A
C2237      C2238   1.402       .  A
C2237     Br2249   1.920   1_565  S
C2238      H2241   1.083       .  S
C2240      C2242   1.407       .  A
C2240      C2246   1.412       .  A
C2242      C2243   1.401       .  A
C2242      H2247   1.083       .  S
C2243      C2244   1.408       .  A
C2243     Br2251   1.919       .  S
C2244      C2245   1.402       .  A
C2245      C2246   1.396       .  A
C2245      H2248   1.084   1_565  S
C2246     Br2252   1.921   1_565  S
C2253      C2254   1.413       .  A
C2253      C2258   1.408       .  A
C2254      C2255   1.401       .  A
C2254     Br2270   1.920       .  S
C2255      C2256   1.402       .  A
C2255      H2259   1.083       .  S
C2256      C2260   1.474       .  S
C2256      C2257   1.404       .  A
C2257      C2258   1.395       .  A
C2257     Br2269   1.920       .  S
C2258      H2261   1.083       .  S
C2260      C2262   1.398       .  A
C2260      C2266   1.407       .  A
C2262      C2263   1.396       .  A
C2262      H2267   1.084       .  S
C2263      C2264   1.414       .  A
C2263     Br2271   1.919       .  S
C2264      C2265   1.405       .  A
C2265      C2266   1.399       .  A
C2265      H2268   1.084       .  S
C2266     Br2272   1.918       .  S
C2273      C2274   1.411       .  A
C2273      C2278   1.404       .  A
C2274      C2275   1.396       .  A
C2274     Br2290   1.920       .  S
C2275      C2276   1.399       .  A
C2275      H2279   1.084       .  S
C2276      C2280   1.472       .  S
C2276      C2277   1.407       .  A
C2277      C2278   1.399       .  A
C2277     Br2289   1.918       .  S
C2278      H2281   1.084       .  S
C2280      C2282   1.399       .  A
C2280      C2286   1.406       .  A
C2282      C2283   1.397       .  A
C2282      H2287   1.084       .  S
C2283      C2284   1.413       .  A
C2283     Br2291   1.920       .  S
C2284      C2285   1.405       .  A
C2285      C2286   1.399       .  A
C2285      H2288   1.083       .  S
C2286     Br2292   1.918       .  S
C2293      C2294   1.411       .  A
C2293      C2298   1.407       .  A
C2294      C2295   1.396       .  A
C2294     Br2310   1.920       .  S
C2295      C2296   1.403       .  A
C2295      H2299   1.084       .  S
C2296      C2300   1.483   1_655  S
C2296      C2297   1.410       .  A
C2297      C2298   1.401       .  A
C2297     Br2309   1.919       .  S
C2298      H2301   1.083       .  S
C2300      C2302   1.398       .  A
C2300      C2306   1.410       .  A
C2302      C2303   1.395       .  A
C2302      H2307   1.084       .  S
C2303      C2304   1.417       .  A
C2303     Br2311   1.918       .  S
C2304      C2305   1.408       .  A
C2305      C2306   1.404       .  A
C2305      H2308   1.083       .  S
C2306     Br2312   1.919       .  S
C2313      C2314   1.423       .  A
C2313      C2318   1.410       .  A
C2314      C2315   1.400       .  A
C2314     Br2330   1.924       .  S
C2315      C2316   1.399       .  A
C2315      H2319   1.084       .  S
C2316      C2320   1.475   1_655  S
C2316      C2317   1.404       .  A
C2317      C2318   1.395       .  A
C2317     Br2329   1.918       .  S
C2318      H2321   1.083       .  S
C2320      C2322   1.399       .  A
C2320      C2326   1.408       .  A
C2322      C2323   1.396       .  A
C2322      H2327   1.084       .  S
C2323      C2324   1.413       .  A
C2323     Br2331   1.919       .  S
C2324      C2325   1.405       .  A
C2325      C2326   1.400       .  A
C2325      H2328   1.083       .  S
C2326     Br2332   1.918       .  S
C2333      C2334   1.412       .  A
C2333      C2338   1.406       .  A
C2334      C2335   1.398       .  A
C2334     Br2350   1.920       .  S
C2335      C2336   1.403       .  A
C2335      H2339   1.084       .  S
C2336      C2340   1.487       .  S
C2336      C2337   1.412       .  A
C2337      C2338   1.403       .  A
C2337     Br2349   1.918       .  S
C2338      H2341   1.083       .  S
C2340      C2342   1.403       .  A
C2340      C2346   1.412       .  A
C2342      C2343   1.401       .  A
C2342      H2347   1.083       .  S
C2343      C2344   1.413       .  A
C2343     Br2351   1.920       .  S
C2344      C2345   1.403       .  A
C2345      C2346   1.400       .  A
C2345      H2348   1.084       .  S
C2346     Br2352   1.919       .  S
C2353      C2354   1.414       .  A
C2353      C2358   1.410       .  A
C2354      C2355   1.403       .  A
C2354     Br2370   1.920       .  S
C2355      C2356   1.404       .  A
C2355      H2359   1.084       .  S
C2356      C2360   1.481       .  S
C2356      C2357   1.405       .  A
C2357      C2358   1.398       .  A
C2357     Br2369   1.919       .  S
C2358      H2361   1.084       .  S
C2360      C2362   1.402       .  A
C2360      C2366   1.409       .  A
C2362      C2363   1.400       .  A
C2362      H2367   1.083       .  S
C2363      C2364   1.410       .  A
C2363     Br2371   1.919       .  S
C2364      C2365   1.403       .  A
C2365      C2366   1.401       .  A
C2365      H2368   1.084       .  S
C2366     Br2372   1.918       .  S
C2373      C2374   1.416       .  A
C2373      C2378   1.409       .  A
C2374      C2375   1.403       .  A
C2374     Br2390   1.921       .  S
C2375      C2376   1.402       .  A
C2375      H2379   1.084       .  S
C2376      C2380   1.477       .  S
C2376      C2377   1.403       .  A
C2377      C2378   1.399       .  A
C2377     Br2389   1.919       .  S
C2378      H2381   1.083       .  S
C2380      C2382   1.404       .  A
C2380      C2386   1.404       .  A
C2382      C2383   1.403       .  A
C2382      H2387   1.083       .  S
C2383      C2384   1.410       .  A
C2383     Br2391   1.918       .  S
C2384      C2385   1.407       .  A
C2385      C2386   1.395       .  A
C2385      H2388   1.084       .  S
C2386     Br2392   1.919       .  S
C2393      C2394   1.415       .  A
C2393      C2398   1.406       .  A
C2394      C2395   1.401       .  A
C2394     Br2410   1.921       .  S
C2395      C2396   1.403       .  A
C2395      H2399   1.084       .  S
C2396      C2400   1.482   1_655  S
C2396      C2397   1.408       .  A
C2397      C2398   1.398       .  A
C2397     Br2409   1.918       .  S
C2398      H2401   1.083       .  S
C2400      C2402   1.399       .  A
C2400      C2406   1.410       .  A
C2402      C2403   1.397       .  A
C2402      H2407   1.084       .  S
C2403      C2404   1.414       .  A
C2403     Br2411   1.919       .  S
C2404      C2405   1.407       .  A
C2405      C2406   1.405       .  A
C2405      H2408   1.083   1_565  S
C2406     Br2412   1.919   1_565  S
C2413      C2414   1.422       .  A
C2413      C2418   1.412       .  A
C2414      C2415   1.402       .  A
C2414     Br2430   1.923       .  S
C2415      C2416   1.400       .  A
C2415      H2419   1.084       .  S
C2416      C2420   1.482       .  S
C2416      C2417   1.403       .  A
C2417      C2418   1.401       .  A
C2417     Br2429   1.918       .  S
C2418      H2421   1.083       .  S
C2420      C2422   1.403       .  A
C2420      C2426   1.404   1_565  A
C2422      C2423   1.405       .  A
C2422      H2427   1.083       .  S
C2423      C2424   1.417       .  A
C2423     Br2431   1.919       .  S
C2424      C2425   1.410   1_565  A
C2425      C2426   1.398       .  A
C2425      H2428   1.083       .  S
C2426     Br2432   1.920       .  S
C2433      C2434   1.411       .  A
C2433      C2438   1.403       .  A
C2434      C2435   1.406       .  A
C2434     Br2450   1.920       .  S
C2435      C2436   1.407       .  A
C2435      H2439   1.083       .  S
C2436      C2440   1.487       .  S
C2436      C2437   1.408       .  A
C2437      C2438   1.399       .  A
C2437     Br2449   1.917       .  S
C2438      H2441   1.084       .  S
C2440      C2442   1.403       .  A
C2440      C2446   1.408       .  A
C2442      C2443   1.403       .  A
C2442      H2447   1.083       .  S
C2443      C2444   1.414       .  A
C2443     Br2451   1.920       .  S
C2444      C2445   1.409       .  A
C2445      C2446   1.404       .  A
C2445      H2448   1.083       .  S
C2446     Br2452   1.919       .  S
C2453      C2454   1.411       .  A
C2453      C2458   1.404       .  A
C2454      C2455   1.405       .  A
C2454     Br2470   1.920       .  S
C2455      C2456   1.405       .  A
C2455      H2459   1.083       .  S
C2456      C2460   1.477       .  S
C2456      C2457   1.404       .  A
C2457      C2458   1.394       .  A
C2457     Br2469   1.918       .  S
C2458      H2461   1.084       .  S
C2460      C2462   1.403       .  A
C2460      C2466   1.404       .  A
C2462      C2463   1.403       .  A
C2462      H2467   1.084       .  S
C2463      C2464   1.413       .  A
C2463     Br2471   1.917       .  S
C2464      C2465   1.409       .  A
C2465      C2466   1.398       .  A
C2465      H2468   1.084       .  S
C2466     Br2472   1.919       .  S
C2473      C2474   1.413       .  A
C2473      C2478   1.408       .  A
C2474      C2475   1.400       .  A
C2474     Br2490   1.921       .  S
C2475      C2476   1.403       .  A
C2475      H2479   1.084       .  S
C2476      C2480   1.473       .  S
C2476      C2477   1.403       .  A
C2477      C2478   1.395       .  A
C2477     Br2489   1.919       .  S
C2478      H2481   1.084       .  S
C2480      C2482   1.403       .  A
C2480      C2486   1.404       .  A
C2482      C2483   1.401       .  A
C2482      H2487   1.083       .  S
C2483      C2484   1.411       .  A
C2483     Br2491   1.920       .  S
C2484      C2485   1.406       .  A
C2485      C2486   1.394       .  A
C2485      H2488   1.084       .  S
C2486     Br2492   1.920       .  S
C2493      C2494   1.412       .  A
C2493      C2498   1.405       .  A
C2494      C2495   1.397       .  A
C2494     Br2510   1.920       .  S
C2495      C2496   1.403       .  A
C2495      H2499   1.084       .  S
C2496      C2500   1.482       .  S
C2496      C2497   1.410       .  A
C2497      C2498   1.399       .  A
C2497     Br2509   1.920       .  S
C2498      H2501   1.084       .  S
C2500      C2502   1.406       .  A
C2500      C2506   1.409       .  A
C2502      C2503   1.401       .  A
C2502      H2507   1.083       .  S
C2503      C2504   1.411       .  A
C2503     Br2511   1.919       .  S
C2504      C2505   1.403       .  A
C2505      C2506   1.394       .  A
C2505      H2508   1.084       .  S
C2506     Br2512   1.920       .  S
C2513      C2514   1.419       .  A
C2513      C2518   1.409       .  A
C2514      C2515   1.394       .  A
C2514     Br2530   1.923       .  S
C2515      C2516   1.397       .  A
C2515      H2519   1.084       .  S
C2516      C2520   1.469       .  S
C2516      C2517   1.403       .  A
C2517      C2518   1.397       .  A
C2517     Br2529   1.918       .  S
C2518      H2521   1.083       .  S
C2520      C2522   1.401       .  A
C2520      C2526   1.403       .  A
C2522      C2523   1.400       .  A
C2522      H2527   1.084       .  S
C2523      C2524   1.414       .  A
C2523     Br2531   1.920       .  S
C2524      C2525   1.406       .  A
C2525      C2526   1.392       .  A
C2525      H2528   1.084       .  S
C2526     Br2532   1.921       .  S
C2533      C2534   1.416       .  A
C2533      C2538   1.406       .  A
C2534      C2535   1.404       .  A
C2534     Br2550   1.918       .  S
C2535      C2536   1.403       .  A
C2535      H2539   1.083       .  S
C2536      C2540   1.489       .  S
C2536      C2537   1.410       .  A
C2537      C2538   1.402       .  A
C2537     Br2549   1.920       .  S
C2538      H2541   1.083       .  S
C2540      C2542   1.403       .  A
C2540      C2546   1.412       .  A
C2542      C2543   1.400       .  A
C2542      H2547   1.084       .  S
C2543      C2544   1.411       .  A
C2543     Br2551   1.919       .  S
C2544      C2545   1.405       .  A
C2545      C2546   1.405       .  A
C2545      H2548   1.084       .  S
C2546     Br2552   1.918       .  S
C2553      C2554   1.409       .  A
C2553      C2558   1.404       .  A
C2554      C2555   1.401       .  A
C2554     Br2570   1.920       .  S
C2555      C2556   1.407       .  A
C2555      H2559   1.083       .  S
C2556      C2560   1.484       .  S
C2556      C2557   1.409       .  A
C2557      C2558   1.395       .  A
C2557     Br2569   1.921       .  S
C2558      H2561   1.084       .  S
C2560      C2562   1.407       .  A
C2560      C2566   1.406       .  A
C2562      C2563   1.403       .  A
C2562      H2567   1.083       .  S
C2563      C2564   1.415       .  A
C2563     Br2571   1.920       .  S
C2564      C2565   1.410       .  A
C2565      C2566   1.392       .  A
C2565      H2568   1.083       .  S
C2566     Br2572   1.922       .  S
C2573      C2574   1.408       .  A
C2573      C2578   1.404       .  A
C2574      C2575   1.395   1_565  A
C2574     Br2590   1.919       .  S
C2575      C2576   1.401       .  A
C2575      H2579   1.084       .  S
C2576      C2580   1.477       .  S
C2576      C2577   1.410       .  A
C2577      C2578   1.402   1_545  A
C2577     Br2589   1.919       .  S
C2578      H2581   1.084       .  S
C2580      C2582   1.400       .  A
C2580      C2586   1.410       .  A
C2582      C2583   1.396       .  A
C2582      H2587   1.084       .  S
C2583      C2584   1.410       .  A
C2583     Br2591   1.918       .  S
C2584      C2585   1.403       .  A
C2585      C2586   1.402       .  A
C2585      H2588   1.083       .  S
C2586     Br2592   1.918       .  S
C2593      C2594   1.411       .  A
C2593      C2598   1.403       .  A
C2594      C2595   1.391       .  A
C2594     Br2610   1.919       .  S
C2595      C2596   1.398       .  A
C2595      H2599   1.084       .  S
C2596      C2600   1.471       .  S
C2596      C2597   1.409       .  A
C2597      C2598   1.400       .  A
C2597     Br2609   1.919       .  S
C2598      H2601   1.083       .  S
C2600      C2602   1.401       .  A
C2600      C2606   1.407       .  A
C2602      C2603   1.397       .  A
C2602      H2607   1.084       .  S
C2603      C2604   1.412       .  A
C2603     Br2611   1.920       .  S
C2604      C2605   1.405       .  A
C2605      C2606   1.395       .  A
C2605      H2608   1.084       .  S
C2606     Br2612   1.921       .  S
C2613      C2614   1.411       .  A
C2613      C2618   1.405       .  A
C2614      C2615   1.402       .  A
C2614     Br2630   1.918       .  S
C2615      C2616   1.403       .  A
C2615      H2619   1.083       .  S
C2616      C2620   1.485       .  S
C2616      C2617   1.410       .  A
C2617      C2618   1.402       .  A
C2617     Br2629   1.919       .  S
C2618      H2621   1.084       .  S
C2620      C2622   1.402       .  A
C2620      C2626   1.411       .  A
C2622      C2623   1.399       .  A
C2622      H2627   1.084       .  S
C2623      C2624   1.410       .  A
C2623     Br2631   1.920       .  S
C2624      C2625   1.403       .  A
C2625      C2626   1.403       .  A
C2625      H2628   1.083       .  S
C2626     Br2632   1.918       .  S
C2633      C2634   1.412       .  A
C2633      C2638   1.406       .  A
C2634      C2635   1.402       .  A
C2634     Br2650   1.918       .  S
C2635      C2636   1.405       .  A
C2635      H2639   1.083       .  S
C2636      C2640   1.482       .  S
C2636      C2637   1.407       .  A
C2637      C2638   1.396       .  A
C2637     Br2649   1.921       .  S
C2638      H2641   1.084       .  S
C2640      C2642   1.402       .  A
C2640      C2646   1.407       .  A
C2642      C2643   1.398       .  A
C2642      H2647   1.084       .  S
C2643      C2644   1.416       .  A
C2643     Br2651   1.922       .  S
C2644      C2645   1.409       .  A
C2645      C2646   1.401       .  A
C2645      H2648   1.083       .  S
C2646     Br2652   1.919       .  S
C2653      C2654   1.406       .  A
C2653      C2658   1.402       .  A
C2654      C2655   1.395       .  A
C2654     Br2670   1.919       .  S
C2655      C2656   1.402       .  A
C2655      H2659   1.084       .  S
C2656      C2660   1.478       .  S
C2656      C2657   1.410       .  A
C2657      C2658   1.402       .  A
C2657     Br2669   1.916       .  S
C2658      H2661   1.083       .  S
C2660      C2662   1.403       .  A
C2660      C2666   1.405       .  A
C2662      C2663   1.403       .  A
C2662      H2667   1.084       .  S
C2663      C2664   1.413       .  A
C2663     Br2671   1.918       .  S
C2664      C2665   1.407       .  A
C2665      C2666   1.397       .  A
C2665      H2668   1.084       .  S
C2666     Br2672   1.919       .  S
C2673      C2674   1.416       .  A
C2673      C2678   1.410       .  A
C2674      C2675   1.400       .  A
C2674     Br2690   1.921       .  S
C2675      C2676   1.401       .  A
C2675      H2679   1.084       .  S
C2676      C2680   1.470       .  S
C2676      C2677   1.402       .  A
C2677      C2678   1.394       .  A
C2677     Br2689   1.920       .  S
C2678      H2681   1.083       .  S
C2680      C2682   1.398       .  A
C2680      C2686   1.408       .  A
C2682      C2683   1.394       .  A
C2682      H2687   1.084       .  S
C2683      C2684   1.411       .  A
C2683     Br2691   1.921       .  S
C2684      C2685   1.403       .  A
C2685      C2686   1.399       .  A
C2685      H2688   1.083       .  S
C2686     Br2692   1.918       .  S
C2693      C2694   1.416       .  A
C2693      C2698   1.404       .  A
C2694      C2695   1.396   1_565  A
C2694     Br2710   1.920       .  S
C2695      C2696   1.397       .  A
C2695      H2699   1.084       .  S
C2696      C2700   1.473       .  S
C2696      C2697   1.407       .  A
C2697      C2698   1.401   1_545  A
C2697     Br2709   1.917       .  S
C2698      H2701   1.083       .  S
C2700      C2702   1.398       .  A
C2700      C2706   1.406       .  A
C2702      C2703   1.397       .  A
C2702      H2707   1.084       .  S
C2703      C2704   1.416       .  A
C2703     Br2711   1.918       .  S
C2704      C2705   1.406       .  A
C2705      C2706   1.400       .  A
C2705      H2708   1.083       .  S
C2706     Br2712   1.918       .  S
C2713      C2714   1.417       .  A
C2713      C2718   1.410       .  A
C2714      C2715   1.399       .  A
C2714     Br2730   1.922       .  S
C2715      C2716   1.401       .  A
C2715      H2719   1.084       .  S
C2716      C2720   1.478       .  S
C2716      C2717   1.404       .  A
C2717      C2718   1.398       .  A
C2717     Br2729   1.918       .  S
C2718      H2721   1.083       .  S
C2720      C2722   1.402       .  A
C2720      C2726   1.405       .  A
C2722      C2723   1.400       .  A
C2722      H2727   1.084       .  S
C2723      C2724   1.413       .  A
C2723     Br2731   1.918       .  S
C2724      C2725   1.409       .  A
C2725      C2726   1.399       .  A
C2725      H2728   1.084       .  S
C2726     Br2732   1.919       .  S
C2733      C2734   1.425       .  A
C2733      C2738   1.412       .  A
C2734      C2735   1.399       .  A
C2734     Br2750   1.924       .  S
C2735      C2736   1.396       .  A
C2735      H2739   1.084       .  S
C2736      C2740   1.477       .  S
C2736      C2737   1.404       .  A
C2737      C2738   1.401       .  A
C2737     Br2749   1.918       .  S
C2738      H2741   1.083       .  S
C2740      C2742   1.397       .  A
C2740      C2746   1.407       .  A
C2742      C2743   1.397       .  A
C2742      H2747   1.084       .  S
C2743      C2744   1.418       .  A
C2743     Br2751   1.918       .  S
C2744      C2745   1.408       .  A
C2745      C2746   1.403       .  A
C2745      H2748   1.083       .  S
C2746     Br2752   1.917       .  S
C2753      C2754   1.410       .  A
C2753      C2758   1.404       .  A
C2754      C2755   1.402       .  A
C2754     Br2770   1.919       .  S
C2755      C2756   1.404       .  A
C2755      H2759   1.083       .  S
C2756      C2760   1.478       .  S
C2756      C2757   1.406       .  A
C2757      C2758   1.398       .  A
C2757     Br2769   1.918       .  S
C2758      H2761   1.084       .  S
C2760      C2762   1.402       .  A
C2760      C2766   1.406       .  A
C2762      C2763   1.399       .  A
C2762      H2767   1.084       .  S
C2763      C2764   1.413       .  A
C2763     Br2771   1.920       .  S
C2764      C2765   1.407       .  A
C2765      C2766   1.400       .  A
C2765      H2768   1.084       .  S
C2766     Br2772   1.917       .  S
C2773      C2774   1.410       .  A
C2773      C2778   1.402       .  A
C2774      C2775   1.398       .  A
C2774     Br2790   1.920       .  S
C2775      C2776   1.404       .  A
C2775      H2779   1.083       .  S
C2776      C2780   1.479       .  S
C2776      C2777   1.411       .  A
C2777      C2778   1.394       .  A
C2777     Br2789   1.921       .  S
C2778      H2781   1.084       .  S
C2780      C2782   1.401       .  A
C2780      C2786   1.413       .  A
C2782      C2783   1.392       .  A
C2782      H2787   1.084       .  S
C2783      C2784   1.408       .  A
C2783     Br2791   1.920       .  S
C2784      C2785   1.401       .  A
C2785      C2786   1.401       .  A
C2785      H2788   1.083       .  S
C2786     Br2792   1.919       .  S
C2793      C2794   1.418       .  A
C2793      C2798   1.411       .  A
C2794      C2795   1.397       .  A
C2794     Br2810   1.921       .  S
C2795      C2796   1.398       .  A
C2795      H2799   1.084       .  S
C2796      C2800   1.475       .  S
C2796      C2797   1.404       .  A
C2797      C2798   1.400       .  A
C2797     Br2809   1.918       .  S
C2798      H2801   1.083       .  S
C2800      C2802   1.401       .  A
C2800      C2806   1.405       .  A
C2802      C2803   1.400       .  A
C2802      H2807   1.084       .  S
C2803      C2804   1.415       .  A
C2803     Br2811   1.921       .  S
C2804      C2805   1.406       .  A
C2805      C2806   1.398       .  A
C2805      H2808   1.083       .  S
C2806     Br2812   1.919       .  S
C2813      C2814   1.410       .  A
C2813      C2818   1.404       .  A
C2814      C2815   1.396       .  A
C2814     Br2830   1.920       .  S
C2815      C2816   1.400       .  A
C2815      H2819   1.084       .  S
C2816      C2820   1.474       .  S
C2816      C2817   1.408       .  A
C2817      C2818   1.399       .  A
C2817     Br2829   1.919       .  S
C2818      H2821   1.084       .  S
C2820      C2822   1.401       .  A
C2820      C2826   1.403       .  A
C2822      C2823   1.401       .  A
C2822      H2827   1.084       .  S
C2823      C2824   1.416       .  A
C2823     Br2831   1.921       .  S
C2824      C2825   1.410       .  A
C2825      C2826   1.395       .  A
C2825      H2828   1.083       .  S
C2826     Br2832   1.921       .  S
C2833      C2834   1.416       .  A
C2833      C2838   1.408       .  A
C2834      C2835   1.402       .  A
C2834     Br2850   1.922       .  S
C2835      C2836   1.402       .  A
C2835      H2839   1.083       .  S
C2836      C2840   1.472       .  S
C2836      C2837   1.402       .  A
C2837      C2838   1.391       .  A
C2837     Br2849   1.919       .  S
C2838      H2841   1.083       .  S
C2840      C2842   1.399       .  A
C2840      C2846   1.407       .  A
C2842      C2843   1.396       .  A
C2842      H2847   1.084       .  S
C2843      C2844   1.412       .  A
C2843     Br2851   1.920       .  S
C2844      C2845   1.404       .  A
C2845      C2846   1.400       .  A
C2845      H2848   1.083       .  S
C2846     Br2852   1.918       .  S
C2853      C2854   1.417       .  A
C2853      C2858   1.407       .  A
C2854      C2855   1.400       .  A
C2854     Br2870   1.918       .  S
C2855      C2856   1.401       .  A
C2855      H2859   1.084       .  S
C2856      C2860   1.479       .  S
C2856      C2857   1.407       .  A
C2857      C2858   1.396       .  A
C2857     Br2869   1.919       .  S
C2858      H2861   1.084       .  S
C2860      C2862   1.398       .  A
C2860      C2866   1.410       .  A
C2862      C2863   1.396       .  A
C2862      H2867   1.084       .  S
C2863      C2864   1.415       .  A
C2863     Br2871   1.919       .  S
C2864      C2865   1.405       .  A
C2865      C2866   1.403       .  A
C2865      H2868   1.083       .  S
C2866     Br2872   1.919       .  S
C2873      C2874   1.407       .  A
C2873      C2878   1.400       .  A
C2874      C2875   1.394       .  A
C2874     Br2890   1.919       .  S
C2875      C2876   1.402       .  A
C2875      H2879   1.084       .  S
C2876      C2880   1.478       .  S
C2876      C2877   1.411       .  A
C2877      C2878   1.399       .  A
C2877     Br2889   1.919       .  S
C2878      H2881   1.084       .  S
C2880      C2882   1.403       .  A
C2880      C2886   1.408       .  A
C2882      C2883   1.399       .  A
C2882      H2887   1.084       .  S
C2883      C2884   1.411       .  A
C2883     Br2891   1.919       .  S
C2884      C2885   1.406       .  A
C2885      C2886   1.396       .  A
C2885      H2888   1.084       .  S
C2886     Br2892   1.922       .  S
C2893      C2894   1.413       .  A
C2893      C2898   1.405       .  A
C2894      C2895   1.400       .  A
C2894     Br2910   1.919       .  S
C2895      C2896   1.402       .  A
C2895      H2899   1.084       .  S
C2896      C2900   1.483       .  S
C2896      C2897   1.409       .  A
C2897      C2898   1.402       .  A
C2897     Br2909   1.918       .  S
C2898      H2901   1.084       .  S
C2900      C2902   1.402       .  A
C2900      C2906   1.407       .  A
C2902      C2903   1.402       .  A
C2902      H2907   1.084       .  S
C2903      C2904   1.416       .  A
C2903     Br2911   1.920       .  S
C2904      C2905   1.406       .  A
C2905      C2906   1.400       .  A
C2905      H2908   1.083       .  S
C2906     Br2912   1.918       .  S
C2913      C2914   1.414       .  A
C2913      C2918   1.406       .  A
C2914      C2915   1.407       .  A
C2914     Br2930   1.918       .  S
C2915      C2916   1.404       .  A
C2915      H2919   1.083       .  S
C2916      C2920   1.479       .  S
C2916      C2917   1.404       .  A
C2917      C2918   1.394       .  A
C2917     Br2929   1.920       .  S
C2918      H2921   1.084       .  S
C2920      C2922   1.403       .  A
C2920      C2926   1.406       .  A
C2922      C2923   1.401       .  A
C2922      H2927   1.083       .  S
C2923      C2924   1.411       .  A
C2923     Br2931   1.918       .  S
C2924      C2925   1.407       .  A
C2925      C2926   1.400       .  A
C2925      H2928   1.084       .  S
C2926     Br2932   1.919       .  S
C2933      C2934   1.422       .  A
C2933      C2938   1.411       .  A
C2934      C2935   1.401       .  A
C2934     Br2950   1.924       .  S
C2935      C2936   1.402       .  A
C2935      H2939   1.084       .  S
C2936      C2940   1.489       .  S
C2936      C2937   1.407       .  A
C2937      C2938   1.401       .  A
C2937     Br2949   1.918       .  S
C2938      H2941   1.083       .  S
C2940      C2942   1.405       .  A
C2940      C2946   1.411       .  A
C2942      C2943   1.401       .  A
C2942      H2947   1.083       .  S
C2943      C2944   1.410       .  A
C2943     Br2951   1.920       .  S
C2944      C2945   1.403       .  A
C2945      C2946   1.402       .  A
C2945      H2948   1.083       .  S
C2946     Br2952   1.918       .  S
C2953      C2954   1.410       .  A
C2953      C2958   1.403       .  A
C2954      C2955   1.395       .  A
C2954     Br2970   1.920       .  S
C2955      C2956   1.400       .  A
C2955      H2959   1.084       .  S
C2956      C2960   1.480       .  S
C2956      C2957   1.412       .  A
C2957      C2958   1.402       .  A
C2957     Br2969   1.918       .  S
C2958      H2961   1.084       .  S
C2960      C2962   1.401       .  A
C2960      C2966   1.411       .  A
C2962      C2963   1.396       .  A
C2962      H2967   1.084       .  S
C2963      C2964   1.410       .  A
C2963     Br2971   1.919       .  S
C2964      C2965   1.404       .  A
C2965      C2966   1.404       .  A
C2965      H2968   1.083       .  S
C2966     Br2972   1.919       .  S
C2973      C2974   1.414       .  A
C2973      C2978   1.407       .  A
C2974      C2975   1.402       .  A
C2974     Br2990   1.921       .  S
C2975      C2976   1.403       .  A
C2975      H2979   1.083       .  S
C2976      C2980   1.475       .  S
C2976      C2977   1.403       .  A
C2977      C2978   1.395       .  A
C2977     Br2989   1.918       .  S
C2978      H2981   1.084       .  S
C2980      C2982   1.402       .  A
C2980      C2986   1.405       .  A
C2982      C2983   1.400       .  A
C2982      H2987   1.084       .  S
C2983      C2984   1.409       .  A
C2983     Br2991   1.916       .  S
C2984      C2985   1.406       .  A
C2985      C2986   1.398       .  A
C2985      H2988   1.084       .  S
C2986     Br2992   1.918       .  S
C2993      C2994   1.415       .  A
C2993      C2998   1.409       .  A
C2994      C2995   1.398       .  A
C2994     Br3010   1.920       .  S
C2995      C2996   1.400       .  A
C2995      H2999   1.084       .  S
C2996      C3000   1.482   1_556  S
C2996      C2997   1.407       .  A
C2997      C2998   1.405       .  A
C2997     Br3009   1.917       .  S
C2998      H3001   1.083       .  S
C3000      C3002   1.400       .  A
C3000      C3006   1.407       .  A
C3002      C3003   1.401       .  A
C3002      H3007   1.084       .  S
C3003      C3004   1.416       .  A
C3003     Br3011   1.920       .  S
C3004      C3005   1.407       .  A
C3005      C3006   1.403       .  A
C3005      H3008   1.083       .  S
C3006     Br3012   1.918       .  S
C3013      C3014   1.418       .  A
C3013      C3018   1.410       .  A
C3014      C3015   1.397       .  A
C3014     Br3030   1.916       .  S
C3015      C3016   1.398       .  A
C3015      H3019   1.084       .  S
C3016      C3020   1.480       .  S
C3016      C3017   1.407       .  A
C3017      C3018   1.403       .  A
C3017     Br3029   1.919       .  S
C3018      H3021   1.083       .  S
C3020      C3022   1.400       .  A
C3020      C3026   1.407       .  A
C3022      C3023   1.399       .  A
C3022      H3027   1.084       .  S
C3023      C3024   1.418       .  A
C3023     Br3031   1.921       .  S
C3024      C3025   1.410       .  A
C3025      C3026   1.400       .  A
C3025      H3028   1.083       .  S
C3026     Br3032   1.919       .  S
C3033      C3034   1.418       .  A
C3033      C3038   1.410       .  A
C3034      C3035   1.400       .  A
C3034     Br3050   1.921       .  S
C3035      C3036   1.401       .  A
C3035      H3039   1.084       .  S
C3036      C3040   1.489   1_554  S
C3036      C3037   1.409       .  A
C3037      C3038   1.406       .  A
C3037     Br3049   1.918       .  S
C3038      H3041   1.083       .  S
C3040      C3042   1.407       .  A
C3040      C3046   1.409       .  A
C3042      C3043   1.409       .  A
C3042      H3047   1.083       .  S
C3043      C3044   1.414       .  A
C3043     Br3051   1.919       .  S
C3044      C3045   1.405       .  A
C3045      C3046   1.396       .  A
C3045      H3048   1.084       .  S
C3046     Br3052   1.920       .  S
C3053      C3054   1.409       .  A
C3053      C3058   1.405       .  A
C3054      C3055   1.401       .  A
C3054     Br3070   1.916       .  S
C3055      C3056   1.403       .  A
C3055      H3059   1.083       .  S
C3056      C3060   1.475       .  S
C3056      C3057   1.406       .  A
C3057      C3058   1.397       .  A
C3057     Br3069   1.919       .  S
C3058      H3061   1.084       .  S
C3060      C3062   1.404       .  A
C3060      C3066   1.405       .  A
C3062      C3063   1.402       .  A
C3062      H3067   1.083       .  S
C3063      C3064   1.411       .  A
C3063     Br3071   1.921       .  S
C3064      C3065   1.404       .  A
C3065      C3066   1.394       .  A
C3065      H3068   1.084       .  S
C3066     Br3072   1.918       .  S
C3073      C3074   1.413       .  A
C3073      C3078   1.408       .  A
C3074      C3075   1.402       .  A
C3074     Br3090   1.920       .  S
C3075      C3076   1.403       .  A
C3075      H3079   1.083       .  S
C3076      C3080   1.477       .  S
C3076      C3077   1.404       .  A
C3077      C3078   1.396       .  A
C3077     Br3089   1.918       .  S
C3078      H3081   1.084       .  S
C3080      C3082   1.404       .  A
C3080      C3086   1.405       .  A
C3082      C3083   1.403       .  A
C3082      H3087   1.083       .  S
C3083      C3084   1.410       .  A
C3083     Br3091   1.920       .  S
C3084      C3085   1.405       .  A
C3085      C3086   1.396       .  A
C3085      H3088   1.084       .  S
C3086     Br3092   1.919       .  S
C3093      C3094   1.420       .  A
C3093      C3098   1.412       .  A
C3094      C3095   1.403       .  A
C3094     Br3110   1.916       .  S
C3095      C3096   1.400       .  A
C3095      H3099   1.084       .  S
C3096      C3100   1.479       .  S
C3096      C3097   1.402       .  A
C3097      C3098   1.398       .  A
C3097     Br3109   1.918       .  S
C3098      H3101   1.083       .  S
C3100      C3102   1.400       .  A
C3100      C3106   1.402       .  A
C3102      C3103   1.403       .  A
C3102      H3107   1.084       .  S
C3103      C3104   1.420       .  A
C3103     Br3111   1.916       .  S
C3104      C3105   1.412       .  A
C3105      C3106   1.398       .  A
C3105      H3108   1.083   1_565  S
C3106     Br3112   1.918   1_565  S
C3113      C3114   1.419       .  A
C3113      C3118   1.408       .  A
C3114      C3115   1.405       .  A
C3114     Br3130   1.919       .  S
C3115      C3116   1.401       .  A
C3115      H3119   1.083       .  S
C3116      C3120   1.478   1_554  S
C3116      C3117   1.404       .  A
C3117      C3118   1.395       .  A
C3117     Br3129   1.920       .  S
C3118      H3121   1.083       .  S
C3120      C3122   1.402       .  A
C3120      C3126   1.407       .  A
C3122      C3123   1.400       .  A
C3122      H3127   1.084       .  S
C3123      C3124   1.411       .  A
C3123     Br3131   1.920       .  S
C3124      C3125   1.404       .  A
C3125      C3126   1.399       .  A
C3125      H3128   1.084       .  S
C3126     Br3132   1.917       .  S
C3133      C3134   1.424       .  A
C3133      C3138   1.412       .  A
C3134      C3135   1.400       .  A
C3134     Br3150   1.924       .  S
C3135      C3136   1.398       .  A
C3135      H3139   1.084       .  S
C3136      C3140   1.479   1_655  S
C3136      C3137   1.404       .  A
C3137      C3138   1.399       .  A
C3137     Br3149   1.918       .  S
C3138      H3141   1.083       .  S
C3140      C3142   1.402       .  A
C3140      C3146   1.407       .  A
C3142      C3143   1.401       .  A
C3142      H3147   1.084       .  S
C3143      C3144   1.413       .  A
C3143     Br3151   1.920       .  S
C3144      C3145   1.406   1_565  A
C3145      C3146   1.398   1_545  A
C3145      H3148   1.084       .  S
C3146     Br3152   1.920   1_565  S
C3153      C3154   1.413       .  A
C3153      C3158   1.406       .  A
C3154      C3155   1.400       .  A
C3154     Br3170   1.919       .  S
C3155      C3156   1.401       .  A
C3155      H3159   1.084       .  S
C3156      C3160   1.479   1_556  S
C3156      C3157   1.408       .  A
C3157      C3158   1.400       .  A
C3157     Br3169   1.920       .  S
C3158      H3161   1.084       .  S
C3160      C3162   1.404       .  A
C3160      C3166   1.404       .  A
C3162      C3163   1.406       .  A
C3162      H3167   1.083       .  S
C3163      C3164   1.415       .  A
C3163     Br3171   1.917       .  S
C3164      C3165   1.408       .  A
C3165      C3166   1.393       .  A
C3165      H3168   1.083       .  S
C3166     Br3172   1.922       .  S
C3173      C3174   1.409       .  A
C3173      C3178   1.402       .  A
C3174      C3175   1.400       .  A
C3174     Br3190   1.919       .  S
C3175      C3176   1.403       .  A
C3175      H3179   1.083       .  S
C3176      C3180   1.481       .  S
C3176      C3177   1.410       .  A
C3177      C3178   1.402       .  A
C3177     Br3189   1.918       .  S
C3178      H3181   1.084       .  S
C3180      C3182   1.404       .  A
C3180      C3186   1.405       .  A
C3182      C3183   1.405       .  A
C3182      H3187   1.083       .  S
C3183      C3184   1.415       .  A
C3183     Br3191   1.921       .  S
C3184      C3185   1.408       .  A
C3185      C3186   1.397       .  A
C3185      H3188   1.084       .  S
C3186     Br3192   1.919       .  S
C3193      C3194   1.415       .  A
C3193      C3198   1.410       .  A
C3194      C3195   1.399       .  A
C3194     Br3210   1.920       .  S
C3195      C3196   1.400       .  A
C3195      H3199   1.084       .  S
C3196      C3200   1.471       .  S
C3196      C3197   1.402       .  A
C3197      C3198   1.397       .  A
C3197     Br3209   1.920       .  S
C3198      H3201   1.083       .  S
C3200      C3202   1.401       .  A
C3200      C3206   1.405       .  A
C3202      C3203   1.398       .  A
C3202      H3207   1.083       .  S
C3203      C3204   1.408       .  A
C3203     Br3211   1.920       .  S
C3204      C3205   1.404       .  A
C3205      C3206   1.397       .  A
C3205      H3208   1.084       .  S
C3206     Br3212   1.918       .  S
C3213      C3214   1.418       .  A
C3213      C3218   1.410       .  A
C3214      C3215   1.395       .  A
C3214     Br3230   1.922       .  S
C3215      C3216   1.398       .  A
C3215      H3219   1.084       .  S
C3216      C3220   1.469   1_655  S
C3216      C3217   1.402       .  A
C3217      C3218   1.396       .  A
C3217     Br3229   1.919       .  S
C3218      H3221   1.083       .  S
C3220      C3222   1.401       .  A
C3220      C3226   1.404       .  A
C3222      C3223   1.398       .  A
C3222      H3227   1.084       .  S
C3223      C3224   1.412       .  A
C3223     Br3231   1.922       .  S
C3224      C3225   1.405       .  A
C3225      C3226   1.394       .  A
C3225      H3228   1.084       .  S
C3226     Br3232   1.919       .  S
C3233      C3234   1.417       .  A
C3233      C3238   1.408       .  A
C3234      C3235   1.397       .  A
C3234     Br3250   1.922       .  S
C3235      C3236   1.400       .  A
C3235      H3239   1.084       .  S
C3236      C3240   1.482       .  S
C3236      C3237   1.408       .  A
C3237      C3238   1.401       .  A
C3237     Br3249   1.918       .  S
C3238      H3241   1.083       .  S
C3240      C3242   1.401       .  A
C3240      C3246   1.411       .  A
C3242      C3243   1.396       .  A
C3242      H3247   1.084       .  S
C3243      C3244   1.408       .  A
C3243     Br3251   1.918       .  S
C3244      C3245   1.402       .  A
C3245      C3246   1.404       .  A
C3245      H3248   1.083       .  S
C3246     Br3252   1.918       .  S
C3253      C3254   1.409       .  A
C3253      C3258   1.403       .  A
C3254      C3255   1.400       .  A
C3254     Br3270   1.921       .  S
C3255      C3256   1.404       .  A
C3255      H3259   1.083       .  S
C3256      C3260   1.475   1_455  S
C3256      C3257   1.407       .  A
C3257      C3258   1.395       .  A
C3257     Br3269   1.920       .  S
C3258      H3261   1.084       .  S
C3260      C3262   1.397       .  A
C3260      C3266   1.405       .  A
C3262      C3263   1.397       .  A
C3262      H3267   1.084       .  S
C3263      C3264   1.423       .  A
C3263     Br3271   1.923       .  S
C3264      C3265   1.411       .  A
C3265      C3266   1.398       .  A
C3265      H3268   1.083       .  S
C3266     Br3272   1.919       .  S
C3273      C3274   1.419       .  A
C3273      C3278   1.408       .  A
C3274      C3275   1.398       .  A
C3274     Br3290   1.918       .  S
C3275      C3276   1.397       .  A
C3275      H3279   1.084       .  S
C3276      C3280   1.481       .  S
C3276      C3277   1.408       .  A
C3277      C3278   1.404       .  A
C3277     Br3289   1.918       .  S
C3278      H3281   1.083       .  S
C3280      C3282   1.399       .  A
C3280      C3286   1.406       .  A
C3282      C3283   1.399       .  A
C3282      H3287   1.084       .  S
C3283      C3284   1.420       .  A
C3283     Br3291   1.922       .  S
C3284      C3285   1.411       .  A
C3285      C3286   1.402       .  A
C3285      H3288   1.083       .  S
C3286     Br3292   1.919       .  S
C3293      C3294   1.415       .  A
C3293      C3298   1.408       .  A
C3294      C3295   1.398       .  A
C3294     Br3310   1.917       .  S
C3295      C3296   1.399       .  A
C3295      H3299   1.084       .  S
C3296      C3300   1.480       .  S
C3296      C3297   1.406       .  A
C3297      C3298   1.405       .  A
C3297     Br3309   1.916       .  S
C3298      H3301   1.083       .  S
C3300      C3302   1.400       .  A
C3300      C3306   1.407       .  A
C3302      C3303   1.400       .  A
C3302      H3307   1.084       .  S
C3303      C3304   1.415       .  A
C3303     Br3311   1.920       .  S
C3304      C3305   1.406       .  A
C3305      C3306   1.402       .  A
C3305      H3308   1.083       .  S
C3306     Br3312   1.918       .  S
C3313      C3314   1.415       .  A
C3313      C3318   1.405       .  A
C3314      C3315   1.396       .  A
C3314     Br3330   1.919       .  S
C3315      C3316   1.399       .  A
C3315      H3319   1.084       .  S
C3316      C3320   1.478       .  S
C3316      C3317   1.409       .  A
C3317      C3318   1.401       .  A
C3317     Br3329   1.918       .  S
C3318      H3321   1.083       .  S
C3320      C3322   1.401       .  A
C3320      C3326   1.410       .  A
C3322      C3323   1.396       .  A
C3322      H3327   1.084       .  S
C3323      C3324   1.407       .  A
C3323     Br3331   1.920       .  S
C3324      C3325   1.403       .  A
C3325      C3326   1.403       .  A
C3325      H3328   1.083       .  S
C3326     Br3332   1.919       .  S
C3333      C3334   1.415       .  A
C3333      C3338   1.406       .  A
C3334      C3335   1.394       .  A
C3334     Br3350   1.919       .  S
C3335      C3336   1.398       .  A
C3335      H3339   1.084       .  S
C3336      C3340   1.475       .  S
C3336      C3337   1.408       .  A
C3337      C3338   1.399       .  A
C3337     Br3349   1.919       .  S
C3338      H3341   1.083       .  S
C3340      C3342   1.399       .  A
C3340      C3346   1.408       .  A
C3342      C3343   1.397       .  A
C3342      H3347   1.084       .  S
C3343      C3344   1.418       .  A
C3343     Br3351   1.920       .  S
C3344      C3345   1.405       .  A
C3345      C3346   1.396       .  A
C3345      H3348   1.083       .  S
C3346     Br3352   1.919       .  S
C3353      C3354   1.419       .  A
C3353      C3358   1.409       .  A
C3354      C3355   1.397       .  A
C3354     Br3370   1.919       .  S
C3355      C3356   1.397       .  A
C3355      H3359   1.084       .  S
C3356      C3360   1.474   1_655  S
C3356      C3357   1.405       .  A
C3357      C3358   1.400       .  A
C3357     Br3369   1.917       .  S
C3358      H3361   1.083       .  S
C3360      C3362   1.402       .  A
C3360      C3366   1.406       .  A
C3362      C3363   1.400       .  A
C3362      H3367   1.083   1_565  S
C3363      C3364   1.412       .  A
C3363     Br3371   1.922   1_565  S
C3364      C3365   1.403       .  A
C3365      C3366   1.396       .  A
C3365      H3368   1.084       .  S
C3366     Br3372   1.918       .  S
C3373      C3374   1.418       .  A
C3373      C3378   1.410       .  A
C3374      C3375   1.401       .  A
C3374     Br3390   1.922       .  S
C3375      C3376   1.400       .  A
C3375      H3379   1.084       .  S
C3376      C3380   1.479       .  S
C3376      C3377   1.405       .  A
C3377      C3378   1.400       .  A
C3377     Br3389   1.918       .  S
C3378      H3381   1.083       .  S
C3380      C3382   1.400   1_565  A
C3380      C3386   1.409       .  A
C3382      C3383   1.399       .  A
C3382      H3387   1.084       .  S
C3383      C3384   1.411   1_545  A
C3383     Br3391   1.919       .  S
C3384      C3385   1.403       .  A
C3385      C3386   1.403       .  A
C3385      H3388   1.083       .  S
C3386     Br3392   1.917       .  S
C3393      C3394   1.419       .  A
C3393      C3398   1.410       .  A
C3394      C3395   1.401       .  A
C3394     Br3410   1.921       .  S
C3395      C3396   1.399       .  A
C3395      H3399   1.084       .  S
C3396      C3400   1.482       .  S
C3396      C3397   1.406       .  A
C3397      C3398   1.403       .  A
C3397     Br3409   1.918       .  S
C3398      H3401   1.083       .  S
C3400      C3402   1.398       .  A
C3400      C3406   1.409       .  A
C3402      C3403   1.395       .  A
C3402      H3407   1.084       .  S
C3403      C3404   1.412       .  A
C3403     Br3411   1.918       .  S
C3404      C3405   1.406       .  A
C3405      C3406   1.408       .  A
C3405      H3408   1.083       .  S
C3406     Br3412   1.916       .  S
C3413      C3414   1.410       .  A
C3413      C3418   1.404       .  A
C3414      C3415   1.395       .  A
C3414     Br3430   1.920       .  S
C3415      C3416   1.402       .  A
C3415      H3419   1.084       .  S
C3416      C3420   1.485       .  S
C3416      C3417   1.412       .  A
C3417      C3418   1.402       .  A
C3417     Br3429   1.920       .  S
C3418      H3421   1.084       .  S
C3420      C3422   1.406       .  A
C3420      C3426   1.411       .  A
C3422      C3423   1.401       .  A
C3422      H3427   1.083       .  S
C3423      C3424   1.407       .  A
C3423     Br3431   1.918       .  S
C3424      C3425   1.401       .  A
C3425      C3426   1.397       .  A
C3425      H3428   1.084       .  S
C3426     Br3432   1.921       .  S
C3433      C3434   1.414       .  A
C3433      C3438   1.407       .  A
C3434      C3435   1.398       .  A
C3434     Br3450   1.918       .  S
C3435      C3436   1.400       .  A
C3435      H3439   1.084       .  S
C3436      C3440   1.483       .  S
C3436      C3437   1.408       .  A
C3437      C3438   1.405       .  A
C3437     Br3449   1.916       .  S
C3438      H3441   1.083       .  S
C3440      C3442   1.401       .  A
C3440      C3446   1.407       .  A
C3442      C3443   1.403       .  A
C3442      H3447   1.084       .  S
C3443      C3444   1.416       .  A
C3443     Br3451   1.918       .  S
C3444      C3445   1.408       .  A
C3445      C3446   1.401       .  A
C3445      H3448   1.083       .  S
C3446     Br3452   1.918       .  S
C3453      C3454   1.413       .  A
C3453      C3458   1.407       .  A
C3454      C3455   1.405       .  A
C3454     Br3470   1.920       .  S
C3455      C3456   1.404       .  A
C3455      H3459   1.083       .  S
C3456      C3460   1.480       .  S
C3456      C3457   1.405       .  A
C3457      C3458   1.396       .  A
C3457     Br3469   1.919       .  S
C3458      H3461   1.084       .  S
C3460      C3462   1.404       .  A
C3460      C3466   1.407       .  A
C3462      C3463   1.403       .  A
C3462      H3467   1.083       .  S
C3463      C3464   1.409       .  A
C3463     Br3471   1.918       .  S
C3464      C3465   1.405       .  A
C3465      C3466   1.399       .  A
C3465      H3468   1.084       .  S
C3466     Br3472   1.918       .  S
C3473      C3474   1.406       .  A
C3473      C3478   1.404       .  A
C3474      C3475   1.399       .  A
C3474     Br3490   1.917       .  S
C3475      C3476   1.404       .  A
C3475      H3479   1.083       .  S
C3476      C3480   1.481       .  S
C3476      C3477   1.410       .  A
C3477      C3478   1.401       .  A
C3477     Br3489   1.919       .  S
C3478      H3481   1.084       .  S
C3480      C3482   1.399   1_545  A
C3480      C3486   1.410       .  A
C3482      C3483   1.398       .  A
C3482      H3487   1.084   1_565  S
C3483      C3484   1.415       .  A
C3483     Br3491   1.919       .  S
C3484      C3485   1.405       .  A
C3485      C3486   1.402   1_565  A
C3485      H3488   1.083       .  S
C3486     Br3492   1.919       .  S
C3493      C3494   1.411       .  A
C3493      C3498   1.402       .  A
C3494      C3495   1.398       .  A
C3494     Br3510   1.920       .  S
C3495      C3496   1.402       .  A
C3495      H3499   1.084       .  S
C3496      C3500   1.483       .  S
C3496      C3497   1.411       .  A
C3497      C3498   1.401       .  A
C3497     Br3509   1.918       .  S
C3498      H3501   1.083       .  S
C3500      C3502   1.405       .  A
C3500      C3506   1.409       .  A
C3502      C3503   1.400       .  A
C3502      H3507   1.083       .  S
C3503      C3504   1.409       .  A
C3503     Br3511   1.918       .  S
C3504      C3505   1.404       .  A
C3505      C3506   1.400       .  A
C3505      H3508   1.084       .  S
C3506     Br3512   1.919       .  S
C3513      C3514   1.415       .  A
C3513      C3518   1.406       .  A
C3514      C3515   1.400       .  A
C3514     Br3530   1.919       .  S
C3515      C3516   1.400       .  A
C3515      H3519   1.084       .  S
C3516      C3520   1.477   1_556  S
C3516      C3517   1.406       .  A
C3517      C3518   1.399       .  A
C3517     Br3529   1.918       .  S
C3518      H3521   1.084       .  S
C3520      C3522   1.403       .  A
C3520      C3526   1.405       .  A
C3522      C3523   1.405       .  A
C3522      H3527   1.083       .  S
C3523      C3524   1.414       .  A
C3523     Br3531   1.918       .  S
C3524      C3525   1.407       .  A
C3525      C3526   1.393       .  A
C3525      H3528   1.084       .  S
C3526     Br3532   1.921       .  S
C3533      C3534   1.410       .  A
C3533      C3538   1.400       .  A
C3534      C3535   1.395       .  A
C3534     Br3550   1.918       .  S
C3535      C3536   1.399       .  A
C3535      H3539   1.084       .  S
C3536      C3540   1.475       .  S
C3536      C3537   1.410       .  A
C3537      C3538   1.400       .  A
C3537     Br3549   1.918       .  S
C3538      H3541   1.083       .  S
C3540      C3542   1.402       .  A
C3540      C3546   1.408       .  A
C3542      C3543   1.397       .  A
C3542      H3547   1.084       .  S
C3543      C3544   1.410       .  A
C3543     Br3551   1.919       .  S
C3544      C3545   1.405       .  A
C3545      C3546   1.397       .  A
C3545      H3548   1.084       .  S
C3546     Br3552   1.919       .  S
C3553      C3554   1.415       .  A
C3553      C3558   1.410       .  A
C3554      C3555   1.404       .  A
C3554     Br3570   1.916       .  S
C3555      C3556   1.405       .  A
C3555      H3559   1.083       .  S
C3556      C3560   1.488       .  S
C3556      C3557   1.407       .  A
C3557      C3558   1.397       .  A
C3557     Br3569   1.920       .  S
C3558      H3561   1.083       .  S
C3560      C3562   1.408       .  A
C3560      C3566   1.409       .  A
C3562      C3563   1.404       .  A
C3562      H3567   1.083       .  S
C3563      C3564   1.410       .  A
C3563     Br3571   1.919       .  S
C3564      C3565   1.405       .  A
C3565      C3566   1.397       .  A
C3565      H3568   1.084       .  S
C3566     Br3572   1.920       .  S
C3573      C3574   1.414       .  A
C3573      C3578   1.409       .  A
C3574      C3575   1.404       .  A
C3574     Br3590   1.918       .  S
C3575      C3576   1.403       .  A
C3575      H3579   1.083       .  S
C3576      C3580   1.478   1_556  S
C3576      C3577   1.405       .  A
C3577      C3578   1.396       .  A
C3577     Br3589   1.920       .  S
C3578      H3581   1.083       .  S
C3580      C3582   1.403       .  A
C3580      C3586   1.407       .  A
C3582      C3583   1.402       .  A
C3582      H3587   1.083       .  S
C3583      C3584   1.411       .  A
C3583     Br3591   1.918       .  S
C3584      C3585   1.404       .  A
C3585      C3586   1.398       .  A
C3585      H3588   1.084       .  S
C3586     Br3592   1.919       .  S
C3593      C3594   1.411       .  A
C3593      C3598   1.402       .  A
C3594      C3595   1.397       .  A
C3594     Br3610   1.920       .  S
C3595      C3596   1.400       .  A
C3595      H3599   1.084       .  S
C3596      C3600   1.473       .  S
C3596      C3597   1.408       .  A
C3597      C3598   1.399       .  A
C3597     Br3609   1.919       .  S
C3598      H3601   1.084       .  S
C3600      C3602   1.401       .  A
C3600      C3606   1.401       .  A
C3602      C3603   1.401       .  A
C3602      H3607   1.084       .  S
C3603      C3604   1.418       .  A
C3603     Br3611   1.916       .  S
C3604      C3605   1.413       .  A
C3605      C3606   1.393       .  A
C3605      H3608   1.083       .  S
C3606     Br3612   1.920       .  S
C3613      C3614   1.410       .  A
C3613      C3618   1.402       .  A
C3614      C3615   1.397       .  A
C3614     Br3630   1.919       .  S
C3615      C3616   1.400       .  A
C3615      H3619   1.084       .  S
C3616      C3620   1.471       .  S
C3616      C3617   1.407       .  A
C3617      C3618   1.398       .  A
C3617     Br3629   1.918       .  S
C3618      H3621   1.084       .  S
C3620      C3622   1.400       .  A
C3620      C3626   1.402       .  A
C3622      C3623   1.401       .  A
C3622      H3627   1.084       .  S
C3623      C3624   1.417       .  A
C3623     Br3631   1.921       .  S
C3624      C3625   1.410       .  A
C3625      C3626   1.394       .  A
C3625      H3628   1.083       .  S
C3626     Br3632   1.920       .  S
C3633      C3634   1.411       .  A
C3633      C3638   1.404       .  A
C3634      C3635   1.398       .  A
C3634     Br3650   1.921       .  S
C3635      C3636   1.403       .  A
C3635      H3639   1.084       .  S
C3636      C3640   1.484       .  S
C3636      C3637   1.411       .  A
C3637      C3638   1.401       .  A
C3637     Br3649   1.919       .  S
C3638      H3641   1.084       .  S
C3640      C3642   1.407       .  A
C3640      C3646   1.409       .  A
C3642      C3643   1.403       .  A
C3642      H3647   1.083       .  S
C3643      C3644   1.407       .  A
C3643     Br3651   1.917       .  S
C3644      C3645   1.403       .  A
C3645      C3646   1.397       .  A
C3645      H3648   1.084       .  S
C3646     Br3652   1.920       .  S
C3653      C3654   1.411       .  A
C3653      C3658   1.405       .  A
C3654      C3655   1.401       .  A
C3654     Br3670   1.920       .  S
C3655      C3656   1.406       .  A
C3655      H3659   1.083       .  S
C3656      C3660   1.480       .  S
C3656      C3657   1.407       .  A
C3657      C3658   1.394       .  A
C3657     Br3669   1.921       .  S
C3658      H3661   1.084       .  S
C3660      C3662   1.404       .  A
C3660      C3666   1.406       .  A
C3662      C3663   1.400       .  A
C3662      H3667   1.084       .  S
C3663      C3664   1.414       .  A
C3663     Br3671   1.921       .  S
C3664      C3665   1.408       .  A
C3665      C3666   1.395       .  A
C3665      H3668   1.083       .  S
C3666     Br3672   1.920       .  S
C3673      C3674   1.424       .  A
C3673      C3678   1.413       .  A
C3674      C3675   1.399       .  A
C3674     Br3690   1.923       .  S
C3675      C3676   1.399       .  A
C3675      H3679   1.084       .  S
C3676      C3680   1.490       .  S
C3676      C3677   1.408       .  A
C3677      C3678   1.407       .  A
C3677     Br3689   1.918       .  S
C3678      H3681   1.083       .  S
C3680      C3682   1.404       .  A
C3680      C3686   1.411       .  A
C3682      C3683   1.402       .  A
C3682      H3687   1.083       .  S
C3683      C3684   1.412       .  A
C3683     Br3691   1.920       .  S
C3684      C3685   1.404       .  A
C3685      C3686   1.403       .  A
C3685      H3688   1.083       .  S
C3686     Br3692   1.919       .  S
C3693      C3694   1.408       .  A
C3693      C3698   1.403       .  A
C3694      C3695   1.401       .  A
C3694     Br3710   1.919       .  S
C3695      C3696   1.407       .  A
C3695      H3699   1.083       .  S
C3696      C3700   1.486       .  S
C3696      C3697   1.411       .  A
C3697      C3698   1.396       .  A
C3697     Br3709   1.920       .  S
C3698      H3701   1.084       .  S
C3700      C3702   1.402       .  A
C3700      C3706   1.413       .  A
C3702      C3703   1.396       .  A
C3702      H3707   1.083       .  S
C3703      C3704   1.411       .  A
C3703     Br3711   1.920       .  S
C3704      C3705   1.403       .  A
C3705      C3706   1.403       .  A
C3705      H3708   1.083       .  S
C3706     Br3712   1.920       .  S
C3713      C3714   1.415       .  A
C3713      C3718   1.408       .  A
C3714      C3715   1.397       .  A
C3714     Br3730   1.920       .  S
C3715      C3716   1.400       .  A
C3715      H3719   1.084       .  S
C3716      C3720   1.475       .  S
C3716      C3717   1.405       .  A
C3717      C3718   1.398       .  A
C3717     Br3729   1.919       .  S
C3718      H3721   1.083       .  S
C3720      C3722   1.403       .  A
C3720      C3726   1.406       .  A
C3722      C3723   1.401       .  A
C3722      H3727   1.083       .  S
C3723      C3724   1.411       .  A
C3723     Br3731   1.920       .  S
C3724      C3725   1.404       .  A
C3725      C3726   1.394       .  A
C3725      H3728   1.084       .  S
C3726     Br3732   1.920       .  S
C3733      C3734   1.414       .  A
C3733      C3738   1.404       .  A
C3734      C3735   1.401       .  A
C3734     Br3750   1.919       .  S
C3735      C3736   1.401       .  A
C3735      H3739   1.084       .  S
C3736      C3740   1.480       .  S
C3736      C3737   1.408       .  A
C3737      C3738   1.400       .  A
C3737     Br3749   1.918       .  S
C3738      H3741   1.084       .  S
C3740      C3742   1.402       .  A
C3740      C3746   1.403       .  A
C3742      C3743   1.407       .  A
C3742      H3747   1.083       .  S
C3743      C3744   1.419       .  A
C3743     Br3751   1.914       .  S
C3744      C3745   1.412       .  A
C3745      C3746   1.395       .  A
C3745      H3748   1.083       .  S
C3746     Br3752   1.921       .  S
C3753      C3754   1.413       .  A
C3753      C3758   1.409       .  A
C3754      C3755   1.402       .  A
C3754     Br3770   1.918       .  S
C3755      C3756   1.404       .  A
C3755      H3759   1.084       .  S
C3756      C3760   1.479       .  S
C3756      C3757   1.405       .  A
C3757      C3758   1.394       .  A
C3757     Br3769   1.920       .  S
C3758      H3761   1.084       .  S
C3760      C3762   1.404       .  A
C3760      C3766   1.406       .  A
C3762      C3763   1.400       .  A
C3762      H3767   1.084       .  S
C3763      C3764   1.413       .  A
C3763     Br3771   1.921       .  S
C3764      C3765   1.407       .  A
C3765      C3766   1.395       .  A
C3765      H3768   1.084       .  S
C3766     Br3772   1.919       .  S
C3773      C3774   1.415       .  A
C3773      C3778   1.405       .  A
C3774      C3775   1.395       .  A
C3774     Br3790   1.922       .  S
C3775      C3776   1.398       .  A
C3775      H3779   1.084       .  S
C3776      C3780   1.473       .  S
C3776      C3777   1.408       .  A
C3777      C3778   1.400       .  A
C3777     Br3789   1.917       .  S
C3778      H3781   1.084       .  S
C3780      C3782   1.398       .  A
C3780      C3786   1.408       .  A
C3782      C3783   1.396       .  A
C3782      H3787   1.084       .  S
C3783      C3784   1.414       .  A
C3783     Br3791   1.919       .  S
C3784      C3785   1.405       .  A
C3785      C3786   1.401       .  A
C3785      H3788   1.083       .  S
C3786     Br3792   1.918       .  S
C3793      C3794   1.412       .  A
C3793      C3798   1.404       .  A
C3794      C3795   1.397       .  A
C3794     Br3810   1.920       .  S
C3795      C3796   1.403       .  A
C3795      H3799   1.083       .  S
C3796      C3800   1.490       .  S
C3796      C3797   1.414       .  A
C3797      C3798   1.403       .  A
C3797     Br3809   1.920       .  S
C3798      H3801   1.084       .  S
C3800      C3802   1.407       .  A
C3800      C3806   1.413       .  A
C3802      C3803   1.402       .  A
C3802      H3807   1.083       .  S
C3803      C3804   1.407       .  A
C3803     Br3811   1.918       .  S
C3804      C3805   1.403       .  A
C3805      C3806   1.400       .  A
C3805      H3808   1.084       .  S
C3806     Br3812   1.921       .  S
C3813      C3814   1.420       .  A
C3813      C3818   1.411       .  A
C3814      C3815   1.402       .  A
C3814     Br3830   1.921       .  S
C3815      C3816   1.401       .  A
C3815      H3819   1.084       .  S
C3816      C3820   1.481       .  S
C3816      C3817   1.405       .  A
C3817      C3818   1.399       .  A
C3817     Br3829   1.919       .  S
C3818      H3821   1.083       .  S
C3820      C3822   1.399       .  A
C3820      C3826   1.407       .  A
C3822      C3823   1.400       .  A
C3822      H3827   1.084       .  S
C3823      C3824   1.418       .  A
C3823     Br3831   1.920       .  S
C3824      C3825   1.409       .  A
C3825      C3826   1.402       .  A
C3825      H3828   1.083       .  S
C3826     Br3832   1.919       .  S
C3833      C3834   1.413       .  A
C3833      C3838   1.404       .  A
C3834      C3835   1.405       .  A
C3834     Br3850   1.919       .  S
C3835      C3836   1.404       .  A
C3835      H3839   1.083       .  S
C3836      C3840   1.480   1_556  S
C3836      C3837   1.407       .  A
C3837      C3838   1.395       .  A
C3837     Br3849   1.920   1_556  S
C3838      H3841   1.084       .  S
C3840      C3842   1.400       .  A
C3840      C3846   1.406       .  A
C3842      C3843   1.400       .  A
C3842      H3847   1.084       .  S
C3843      C3844   1.418       .  A
C3843     Br3851   1.921       .  S
C3844      C3845   1.409       .  A
C3845      C3846   1.401       .  A
C3845      H3848   1.083       .  S
C3846     Br3852   1.918       .  S
C3853      C3854   1.410       .  A
C3853      C3858   1.404       .  A
C3854      C3855   1.395       .  A
C3854     Br3870   1.919       .  S
C3855      C3856   1.403       .  A
C3855      H3859   1.083       .  S
C3856      C3860   1.487       .  S
C3856      C3857   1.414       .  A
C3857      C3858   1.402       .  A
C3857     Br3869   1.921       .  S
C3858      H3861   1.084       .  S
C3860      C3862   1.408       .  A
C3860      C3866   1.413       .  A
C3862      C3863   1.402       .  A
C3862      H3867   1.083       .  S
C3863      C3864   1.407       .  A
C3863     Br3871   1.918       .  S
C3864      C3865   1.400       .  A
C3865      C3866   1.394       .  A
C3865      H3868   1.084       .  S
C3866     Br3872   1.921       .  S
C3873      C3874   1.412       .  A
C3873      C3878   1.406       .  A
C3874      C3875   1.398       .  A
C3874     Br3890   1.915       .  S
C3875      C3876   1.401       .  A
C3875      H3879   1.084       .  S
C3876      C3880   1.476       .  S
C3876      C3877   1.406       .  A
C3877      C3878   1.396       .  A
C3877     Br3889   1.919       .  S
C3878      H3881   1.084       .  S
C3880      C3882   1.400       .  A
C3880      C3886   1.406       .  A
C3882      C3883   1.398       .  A
C3882      H3887   1.084       .  S
C3883      C3884   1.415       .  A
C3883     Br3891   1.920       .  S
C3884      C3885   1.407       .  A
C3885      C3886   1.397       .  A
C3885      H3888   1.083       .  S
C3886     Br3892   1.919       .  S
C3893      C3894   1.420       .  A
C3893      C3898   1.409       .  A
C3894      C3895   1.400       .  A
C3894     Br3910   1.922       .  S
C3895      C3896   1.399       .  A
C3895      H3899   1.084       .  S
C3896      C3900   1.481       .  S
C3896      C3897   1.406       .  A
C3897      C3898   1.402       .  A
C3897     Br3909   1.918       .  S
C3898      H3901   1.083       .  S
C3900      C3902   1.398       .  A
C3900      C3906   1.409       .  A
C3902      C3903   1.397       .  A
C3902      H3907   1.084       .  S
C3903      C3904   1.415       .  A
C3903     Br3911   1.915       .  S
C3904      C3905   1.408       .  A
C3905      C3906   1.405       .  A
C3905      H3908   1.083       .  S
C3906     Br3912   1.917       .  S
C3913      C3914   1.409       .  A
C3913      C3918   1.402       .  A
C3914      C3915   1.396       .  A
C3914     Br3930   1.918       .  S
C3915      C3916   1.401       .  A
C3915      H3919   1.084       .  S
C3916      C3920   1.483   1_554  S
C3916      C3917   1.412       .  A
C3917      C3918   1.404       .  A
C3917     Br3929   1.919       .  S
C3918      H3921   1.083       .  S
C3920      C3922   1.398       .  A
C3920      C3926   1.409       .  A
C3922      C3923   1.396       .  A
C3922      H3927   1.084       .  S
C3923      C3924   1.422       .  A
C3923     Br3931   1.924       .  S
C3924      C3925   1.409       .  A
C3925      C3926   1.403       .  A
C3925      H3928   1.083       .  S
C3926     Br3932   1.919       .  S
C3933      C3934   1.413       .  A
C3933      C3938   1.406       .  A
C3934      C3935   1.402       .  A
C3934     Br3950   1.921       .  S
C3935      C3936   1.403       .  A
C3935      H3939   1.083       .  S
C3936      C3940   1.476       .  S
C3936      C3937   1.404       .  A
C3937      C3938   1.396       .  A
C3937     Br3949   1.918       .  S
C3938      H3941   1.084       .  S
C3940      C3942   1.401       .  A
C3940      C3946   1.407       .  A
C3942      C3943   1.399       .  A
C3942      H3947   1.084       .  S
C3943      C3944   1.412       .  A
C3943     Br3951   1.919       .  S
C3944      C3945   1.403       .  A
C3945      C3946   1.399       .  A
C3945      H3948   1.084       .  S
C3946     Br3952   1.917       .  S
C3953      C3954   1.408       .  A
C3953      C3958   1.404       .  A
C3954      C3955   1.397       .  A
C3954     Br3970   1.919       .  S
C3955      C3956   1.402       .  A
C3955      H3959   1.084       .  S
C3956      C3960   1.470       .  S
C3956      C3957   1.405       .  A
C3957      C3958   1.396       .  A
C3957     Br3969   1.919       .  S
C3958      H3961   1.084       .  S
C3960      C3962   1.400   1_545  A
C3960      C3966   1.401   1_545  A
C3962      C3963   1.400       .  A
C3962      H3967   1.084   1_565  S
C3963      C3964   1.418       .  A
C3963     Br3971   1.922       .  S
C3964      C3965   1.409       .  A
C3965      C3966   1.392       .  A
C3965      H3968   1.083       .  S
C3966     Br3972   1.919   1_565  S
C3973      C3974   1.410       .  A
C3973      C3978   1.403       .  A
C3974      C3975   1.398       .  A
C3974     Br3990   1.919       .  S
C3975      C3976   1.404       .  A
C3975      H3979   1.083       .  S
C3976      C3980   1.485       .  S
C3976      C3977   1.412       .  A
C3977      C3978   1.398       .  A
C3977     Br3989   1.923       .  S
C3978      H3981   1.084       .  S
C3980      C3982   1.401       .  A
C3980      C3986   1.415       .  A
C3982      C3983   1.393       .  A
C3982      H3987   1.083       .  S
C3983      C3984   1.409       .  A
C3983     Br3991   1.920       .  S
C3984      C3985   1.403       .  A
C3985      C3986   1.402       .  A
C3985      H3988   1.084       .  S
C3986     Br3992   1.920       .  S
C3993      C3994   1.410       .  A
C3993      C3998   1.404       .  A
C3994      C3995   1.400       .  A
C3994     Br4010   1.920       .  S
C3995      C3996   1.403       .  A
C3995      H3999   1.083       .  S
C3996      C4000   1.473       .  S
C3996      C3997   1.405       .  A
C3997      C3998   1.393       .  A
C3997     Br4009   1.919       .  S
C3998      H4001   1.084       .  S
C4000      C4002   1.399       .  A
C4000      C4006   1.404       .  A
C4002      C4003   1.397       .  A
C4002      H4007   1.084       .  S
C4003      C4004   1.415       .  A
C4003     Br4011   1.919       .  S
C4004      C4005   1.408       .  A
C4005      C4006   1.399       .  A
C4005      H4008   1.083       .  S
C4006     Br4012   1.919       .  S
C4013      C4014   1.418       .  A
C4013      C4018   1.411       .  A
C4014      C4015   1.404       .  A
C4014     Br4030   1.917       .  S
C4015      C4016   1.402       .  A
C4015      H4019   1.084       .  S
C4016      C4020   1.479       .  S
C4016      C4017   1.402       .  A
C4017      C4018   1.395       .  A
C4017     Br4029   1.919       .  S
C4018      H4021   1.083       .  S
C4020      C4022   1.404       .  A
C4020      C4026   1.404       .  A
C4022      C4023   1.404       .  A
C4022      H4027   1.083       .  S
C4023      C4024   1.414       .  A
C4023     Br4031   1.919       .  S
C4024      C4025   1.408       .  A
C4025      C4026   1.396       .  A
C4025      H4028   1.083       .  S
C4026     Br4032   1.919       .  S
