geometry optimzed in LAMMPS
_audit_creation_date              2020-12-01 
_audit_creation_method            'lammps2cif' 
_symmetry_space_group_name_H-M    'P1' 
_symmetry_Int_Tables_number       1 
_symmetry_cell_setting            triclinic 
loop_ 
_symmetry_equiv_pos_as_xyz 
  x,y,z 
_cell_length_a                    42.1003495 
_cell_length_b                    100.06305246843331 
_cell_length_c                    56.74295774120176 
_cell_angle_alpha                 90.03772025221977 
_cell_angle_beta                  90.151964111308 
_cell_angle_gamma                 89.6447723801991 
loop_ 
_atom_site_label 
_atom_site_type_symbol 
_atom_site_fract_x 
_atom_site_fract_y 
_atom_site_fract_z 
_atom_site_charge 
O1          O  0.05991116  0.92803925  0.45262087    -0.73600
O2          O  0.09434640  0.93034497  0.38959423    -0.73600
O3          O  0.10480875  0.91489792  0.42812068    -0.73700
O4          O  0.04799030  0.94350736  0.41417047    -0.73700
O5          O  0.08366057  0.95822953  0.42660788    -0.73700
O6          O  0.14064074  0.92930287  0.44178442    -0.73600
O7          O  0.13028552  0.94471536  0.40284817    -0.73600
O8          O  0.09544533  0.94284160  0.46496420    -0.73700
Ni9        Ni  0.07546154  0.92873072  0.42055423     1.25400
Ni10       Ni  0.11378902  0.94433376  0.43432231     1.25400
C11         C  0.07272587  0.93480227  0.46938805     0.88600
C12         C  0.11872564  0.93772323  0.38597026     0.88500
C13         C  0.13127646  0.91729165  0.43829736     0.88500
C14         C  0.05579215  0.95557147  0.41874937     0.88700
O15         O  0.27789613  0.81270211  0.52151647    -0.73600
O16         O  0.25343810  0.81014281  0.45576266    -0.73600
O17         O  0.24803044  0.82871252  0.49001753    -0.73700
O18         O  0.28470852  0.79404671  0.48696240    -0.73700
O19         O  0.23921225  0.78503776  0.49883602    -0.73700
O20         O  0.20091897  0.82016245  0.49900715    -0.73600
O21         O  0.20819601  0.80049414  0.46655483    -0.73600
O22         O  0.23069489  0.80457522  0.53137707    -0.73700
Ni23       Ni  0.26768857  0.81167998  0.48818099     1.25400
Ni24       Ni  0.21812492  0.80222648  0.49930866     1.25400
C25         C  0.25774477  0.80927739  0.53737032     0.88600
C26         C  0.22649984  0.80493662  0.45044224     0.88500
C27         C  0.21851425  0.83027309  0.49446297     0.88500
C28         C  0.26850414  0.78383662  0.49286228     0.88700
O29         O  0.28472892  0.92868509  0.15915628    -0.73600
O30         O  0.25891479  0.93368416  0.22397495    -0.73600
O31         O  0.25434309  0.91394568  0.19190619    -0.73700
O32         O  0.29092158  0.94847692  0.19126802    -0.73700
O33         O  0.24574314  0.95728351  0.17738288    -0.73700
O34         O  0.20753459  0.92257907  0.18146238    -0.73600
O35         O  0.21413109  0.94342021  0.21154357    -0.73600
O36         O  0.23766178  0.93663294  0.14781559    -0.73700
Ni37       Ni  0.27391340  0.93093839  0.19207651     1.25400
Ni38       Ni  0.22461599  0.94031806  0.17919094     1.25400
C39         C  0.26493242  0.93174815  0.14271488     0.88600
C40         C  0.23180958  0.93913543  0.22830781     0.88500
C41         C  0.22498503  0.91248029  0.18701247     0.88500
C42         C  0.27505780  0.95838109  0.18318681     0.88700
O43         O  0.06212703  0.81411792  0.22228500    -0.73600
O44         O  0.09530514  0.81186439  0.28580868    -0.73600
O45         O  0.10391413  0.82797686  0.24816295    -0.73700
O46         O  0.05187891  0.79766460  0.26018997    -0.73700
O47         O  0.09059223  0.78409896  0.24799069    -0.73700
O48         O  0.14239276  0.81461156  0.23469519    -0.73600
O49         O  0.13404357  0.79859248  0.27278978    -0.73600
O50         O  0.10031045  0.80022781  0.21020788    -0.73700
Ni51       Ni  0.07681434  0.81331298  0.25465627     1.25400
Ni52       Ni  0.11815247  0.79885647  0.24111634     1.25400
C53         C  0.07681715  0.80797878  0.20559765     0.88600
C54         C  0.12099642  0.80519401  0.28957382     0.88500
C55         C  0.13109193  0.82633029  0.23858242     0.88500
C56         C  0.06236240  0.78586822  0.25592850     0.88700
O57         O  0.27581502  0.42840238  0.74070328    -0.73600
O58         O  0.24580356  0.43085439  0.80495318    -0.73600
O59         O  0.23784548  0.41372806  0.76863215    -0.73700
O60         O  0.28543943  0.44530849  0.77736437    -0.73700
O61         O  0.24485316  0.45781952  0.76468932    -0.73700
O62         O  0.19583363  0.42558944  0.75666763    -0.73600
O63         O  0.20507849  0.44332962  0.79256867    -0.73600
O64         O  0.23398252  0.44048462  0.72919734    -0.73700
Ni65       Ni  0.26269045  0.42917378  0.77338083     1.25400
Ni66       Ni  0.21841094  0.44225683  0.76042792     1.25400
C67         C  0.25937643  0.43401142  0.72428960     0.88600
C68         C  0.22021922  0.43749840  0.80925398     0.88500
C69         C  0.20934387  0.41429023  0.76100521     0.88500
C70         C  0.27363465  0.45669670  0.77206498     0.88700
O71         O  0.03527302  0.31065650  0.71814354    -0.73600
O72         O  0.06118080  0.30858812  0.78380421    -0.73600
O73         O  0.07090522  0.32571437  0.74792573    -0.73700
O74         O  0.02391324  0.29361242  0.75418243    -0.73700
O75         O  0.06600225  0.28175095  0.74282739    -0.73700
O76         O  0.11463301  0.31430039  0.73866370    -0.73600
O77         O  0.10284275  0.29622260  0.77295180    -0.73600
O78         O  0.07907408  0.29943633  0.70840578    -0.73700
Ni79       Ni  0.04628348  0.31004885  0.75140959     1.25400
Ni80       Ni  0.09214187  0.29750876  0.74036832     1.25400
C81         C  0.05315411  0.30524295  0.70240071     0.88600
C82         C  0.08677010  0.30211955  0.78900606     0.88500
C83         C  0.10048083  0.32545378  0.74293315     0.88500
C84         C  0.03655354  0.28238899  0.74874910     0.88700
O85         O  0.05795453  0.43073849  0.03816843    -0.73600
O86         O  0.08756177  0.43258108  0.97372152    -0.73600
O87         O  0.09375608  0.41512060  0.00995890    -0.73700
O88         O  0.05022296  0.44844619  0.00201129    -0.73700
O89         O  0.09275809  0.45925494  0.01533172    -0.73700
O90         O  0.13783542  0.42588549  0.02052357    -0.73600
O91         O  0.12952418  0.44409048  0.98606830    -0.73600
O92         O  0.10210700  0.44097124  0.04968944    -0.73700
Ni93       Ni  0.07074311  0.43138292  0.00544201     1.25400
Ni94       Ni  0.11700932  0.44297075  0.01825415     1.25400
C95         C  0.07592324  0.43522139  0.05469257     0.88600
C96         C  0.11407667  0.43840496  0.96944699     0.88500
C97         C  0.12283489  0.41501445  0.01650046     0.88500
C98         C  0.06379812  0.45931876  0.00822156     0.88700
O99         O  0.26970011  0.30803183  0.00872389    -0.73600
O100        O  0.22942047  0.30409746  0.94772498    -0.73600
O101        O  0.22803669  0.32235599  0.98264034    -0.73700
O102        O  0.27269137  0.28973166  0.97336527    -0.73700
O103        O  0.23339983  0.27822178  0.98978836    -0.73700
O104        O  0.18837486  0.31144795  0.00003799    -0.73600
O105        O  0.18980950  0.29307151  0.96456285    -0.73600
O106        O  0.23014620  0.29649290  0.02471552    -0.73700
Ni107      Ni  0.25137433  0.30638692  0.97744747     1.25400
Ni108      Ni  0.20896046  0.29436912  0.99524249     1.25400
C109        C  0.25606110  0.30299443  0.02689331     0.88600
C110        C  0.20231678  0.29828609  0.94621339     0.88500
C111        C  0.20148496  0.32235591  0.99338359     0.88500
C112        C  0.26120028  0.27866657  0.98053557     0.88700
O113        O  0.18807245  0.17864132  0.44272947    -0.73600
O114        O  0.22342194  0.17984279  0.50579325    -0.73600
O115        O  0.17756563  0.19378125  0.48184692    -0.73700
O116        O  0.23225749  0.16466433  0.46727166    -0.73700
O117        O  0.26931135  0.17871251  0.45430243    -0.73700
O118        O  0.21402629  0.20828325  0.46995832    -0.73600
O119        O  0.26012540  0.19402532  0.49315537    -0.73600
O120        O  0.22467674  0.19317953  0.43114698    -0.73700
Ni121      Ni  0.20394376  0.17878025  0.47489103     1.25400
Ni122      Ni  0.24332088  0.19409226  0.46178346     1.25400
C123        C  0.20109989  0.18562740  0.42640325     0.88600
C124        C  0.24845891  0.18683557  0.50960092     0.88500
C125        C  0.18617279  0.20581141  0.47799424     0.88500
C126        C  0.25951634  0.16681530  0.45835756     0.88700
O127        O  0.40219829  0.05745725  0.40234872    -0.73600
O128        O  0.37156388  0.05204682  0.46605609    -0.73600
O129        O  0.40461493  0.03729816  0.43409105    -0.73700
O130        O  0.37083841  0.07233410  0.43477671    -0.73700
O131        O  0.32412720  0.06512938  0.42174321    -0.73700
O132        O  0.35994639  0.02932988  0.41842187    -0.73600
O133        O  0.32675611  0.04369499  0.45139275    -0.73600
O134        O  0.35553017  0.05044545  0.38887218    -0.73700
Ni135      Ni  0.38889362  0.05502655  0.43483833     1.25400
Ni136      Ni  0.33990649  0.04686039  0.41964185     1.25400
C137        C  0.38347509  0.05485693  0.38499947     0.88600
C138        C  0.34383225  0.04700108  0.46911256     0.88500
C139        C  0.38864455  0.02760235  0.42568671     0.88500
C140        C  0.34219238  0.07471194  0.42862884     0.88700
O141        O  0.18034473  0.05897940  0.69500913    -0.73600
O142        O  0.21109283  0.05240446  0.63188284    -0.73600
O143        O  0.16603465  0.04114459  0.66029561    -0.73700
O144        O  0.22370281  0.07011064  0.66653526    -0.73700
O145        O  0.26048551  0.05642734  0.68163556    -0.73700
O146        O  0.20264658  0.02697571  0.67386525    -0.73600
O147        O  0.24814083  0.03874763  0.64632915    -0.73600
O148        O  0.21677386  0.04472017  0.70864860    -0.73700
Ni149      Ni  0.19391233  0.05607170  0.66282148     1.25400
Ni150      Ni  0.23324703  0.04114556  0.67799437     1.25400
C151        C  0.19465819  0.05329772  0.71237604     0.88600
C152        C  0.23569848  0.04492737  0.62880350     0.88500
C153        C  0.17424172  0.02932909  0.66655507     0.88500
C154        C  0.25098357  0.06819380  0.67589744     0.88700
O155        O  0.41812349  0.17193734  0.73496922    -0.73600
O156        O  0.38941939  0.17824801  0.67093587    -0.73600
O157        O  0.42286527  0.19244330  0.70419251    -0.73700
O158        O  0.38640616  0.15777291  0.70152979    -0.73700
O159        O  0.34009164  0.16590715  0.71397904    -0.73700
O160        O  0.37802799  0.20074887  0.71909983    -0.73600
O161        O  0.34484093  0.18718297  0.68510183    -0.73600
O162        O  0.37150190  0.17957811  0.74783517    -0.73700
Ni163      Ni  0.40587202  0.17484868  0.70236718     1.25400
Ni164      Ni  0.35703032  0.18368664  0.71691980     1.25400
C165        C  0.39900463  0.17465324  0.75198817     0.88600
C166        C  0.36168774  0.18340464  0.66758776     0.88500
C167        C  0.40724015  0.20218478  0.71314326     0.88500
C168        C  0.35723734  0.15606551  0.70676303     0.88700
O169        O  0.39669649  0.56394903  0.00734610    -0.73600
O170        O  0.37492462  0.55796438  0.07287882    -0.73600
O171        O  0.41600650  0.54647947  0.04085300    -0.73700
O172        O  0.35755486  0.57547920  0.03954047    -0.73700
O173        O  0.31857871  0.56183967  0.02829330    -0.73700
O174        O  0.37820952  0.53237626  0.02960673    -0.73600
O175        O  0.33700239  0.54397011  0.06144593    -0.73600
O176        O  0.35809533  0.55007717  0.99686194    -0.73700
Ni177      Ni  0.38773225  0.56139553  0.04061726     1.25400
Ni178      Ni  0.34665759  0.54652220  0.02875726     1.25400
C179        C  0.38063950  0.55796257  0.99119688     0.88600
C180        C  0.35109039  0.55047722  0.07781229     0.88500
C181        C  0.40748705  0.53480101  0.03434759     0.88500
C182        C  0.32864769  0.57350761  0.03384204     0.88700
O183        O  0.17531762  0.68242747  0.00307219    -0.73600
O184        O  0.20664566  0.68720443  0.06654544    -0.73600
O185        O  0.17239878  0.70225611  0.03518609    -0.73700
O186        O  0.20812449  0.66741934  0.03452637    -0.73700
O187        O  0.25427921  0.67527967  0.02169758    -0.73700
O188        O  0.21643455  0.71050571  0.01921399    -0.73600
O189        O  0.25081180  0.69614655  0.05215030    -0.73600
O190        O  0.22171971  0.68959901  0.98922603    -0.73700
Ni191      Ni  0.18904904  0.68458491  0.03538982     1.25400
Ni192      Ni  0.23746867  0.69324292  0.02015983     1.25400
C193        C  0.19379086  0.68504273  0.98571845     0.88600
C194        C  0.23443879  0.69213928  0.06975917     0.88500
C195        C  0.18757943  0.71199321  0.02616453     0.88500
C196        C  0.23686024  0.66546077  0.02817604     0.88700
O197        O  0.17524449  0.56028263  0.30198451    -0.73600
O198        O  0.21281745  0.55853972  0.23961751    -0.73600
O199        O  0.17115318  0.54323482  0.26482176    -0.73700
O200        O  0.21491692  0.57568276  0.27675872    -0.73700
O201        O  0.25692343  0.56435952  0.29035856    -0.73700
O202        O  0.21114395  0.53143536  0.28013051    -0.73600
O203        O  0.25284730  0.54660672  0.25440997    -0.73600
O204        O  0.21687212  0.54902751  0.31599052    -0.73700
Ni205      Ni  0.19208139  0.55979704  0.27018715     1.25400
Ni206      Ni  0.23589620  0.54741116  0.28565677     1.25400
C207        C  0.19044507  0.55504822  0.31942466     0.88600
C208        C  0.23971494  0.55252512  0.23690292     0.88500
C209        C  0.18297810  0.53203184  0.27135154     0.88500
C210        C  0.24282618  0.57546065  0.28558435     0.88700
O211        O  0.40417047  0.68097014  0.29654935    -0.73600
O212        O  0.37015698  0.68363037  0.23306039    -0.73600
O213        O  0.41237902  0.69794602  0.25985779    -0.73700
O214        O  0.36434020  0.66652653  0.26986090    -0.73700
O215        O  0.32303607  0.67855608  0.28258611    -0.73700
O216        O  0.37280265  0.71067138  0.27340341    -0.73600
O217        O  0.33069494  0.69631069  0.24670994    -0.73600
O218        O  0.36309819  0.69307065  0.30933257    -0.73700
Ni219      Ni  0.38918128  0.68189674  0.26422277     1.25400
Ni220      Ni  0.34598092  0.69514847  0.27837562     1.25400
C221        C  0.38820365  0.68621526  0.31354109     0.88600
C222        C  0.34422069  0.69025249  0.22958205     0.88500
C223        C  0.40143650  0.70939350  0.26577439     0.88500
C224        C  0.33644214  0.66720723  0.27850238     0.88700
O225        O  0.02018421  0.92601077  0.65574563    -0.73600
O226        O  0.49115643  0.93069082  0.72020526    -0.73600
O227        O  0.48426207  0.91157825  0.68724070    -0.73700
O228        O  0.02804589  0.94492853  0.68950895    -0.73700
O229        O  0.48429087  0.95518957  0.67458908    -0.73700
O230        O  0.43935856  0.92157717  0.67585743    -0.73600
O231        O  0.44852425  0.94159287  0.70696613    -0.73600
O232        O  0.47404007  0.93515841  0.64323223    -0.73700
Ni233      Ni  0.50691988  0.92789766  0.68858456     1.25400
Ni234      Ni  0.46000839  0.93878574  0.67469672     1.25400
C235        C  0.50076024  0.92951069  0.63891252     0.88600
C236        C  0.46462819  0.93669342  0.72413579     0.88500
C237        C  0.45475419  0.91101644  0.68201710     0.88500
C238        C  0.01363991  0.95548774  0.68253340     0.88700
O239        O  0.29348400  0.81430643  0.72908802    -0.73600
O240        O  0.33176955  0.81315494  0.79140090    -0.73600
O241        O  0.33973858  0.82775199  0.75159272    -0.73700
O242        O  0.28368091  0.79983477  0.76915431    -0.73700
O243        O  0.31892459  0.78463589  0.75732721    -0.73700
O244        O  0.37480229  0.81290248  0.73780281    -0.73600
O245        O  0.36717158  0.79836326  0.77824208    -0.73600
O246        O  0.32828423  0.79886604  0.71745748    -0.73700
Ni247      Ni  0.31089349  0.81426004  0.76087797     1.25400
Ni248      Ni  0.34855480  0.79813323  0.74741372     1.25400
C249        C  0.30544768  0.80692383  0.71274162     0.88600
C250        C  0.35627709  0.80564990  0.79493835     0.88500
C251        C  0.36559665  0.82503556  0.74085857     0.88500
C252        C  0.29144843  0.78762516  0.76572349     0.88700
O253        O  0.30336145  0.92826430  0.95277656    -0.73600
O254        O  0.33768197  0.93056109  0.88981260    -0.73600
O255        O  0.34939107  0.91554685  0.92886847    -0.73700
O256        O  0.29004295  0.94323791  0.91389706    -0.73700
O257        O  0.32508707  0.95850601  0.92520652    -0.73700
O258        O  0.38382372  0.93057878  0.94244950    -0.73600
O259        O  0.37304244  0.94531485  0.90257620    -0.73600
O260        O  0.33744623  0.94389714  0.96418684    -0.73700
Ni261      Ni  0.31886290  0.92889567  0.92074518     1.25400
Ni262      Ni  0.35608224  0.94514727  0.93384512     1.25400
C263        C  0.31573022  0.93547453  0.96909753     0.88600
C264        C  0.36162505  0.93816453  0.88591829     0.88500
C265        C  0.37532528  0.91841237  0.93944148     0.88500
C266        C  0.29722821  0.95544930  0.91773885     0.88700
O267        O  0.04285152  0.81802724  0.01475298    -0.73600
O268        O  0.50441888  0.81378668  0.95319222    -0.73600
O269        O  0.49914470  0.83259044  0.98703706    -0.73700
O270        O  0.04982179  0.79899291  0.98141521    -0.73700
O271        O  0.50399803  0.78893216  0.99879007    -0.73700
O272        O  0.45603145  0.82205655  0.99982359    -0.73600
O273        O  0.46413414  0.80222181  0.96792178    -0.73600
O274        O  0.49405462  0.80870228  0.03034884    -0.73700
Ni275      Ni  0.52283866  0.81653899  0.98426799     1.25400
Ni276      Ni  0.47807312  0.80503060  0.99963366     1.25400
C277        C  0.52042202  0.81465621  0.03391368     0.88600
C278        C  0.47804287  0.80755358  0.95026718     0.88500
C279        C  0.47030113  0.83285843  0.99392545     0.88500
C280        C  0.03790466  0.78846031  0.99038936     0.88700
O281        O  0.43352987  0.56057543  0.80281006    -0.73600
O282        O  0.46509036  0.55495708  0.73953706    -0.73600
O283        O  0.42287311  0.54243417  0.76873851    -0.73700
O284        O  0.47413890  0.57324575  0.77342413    -0.73700
O285        O  0.01777792  0.56145905  0.79022241    -0.73700
O286        O  0.46188816  0.52975303  0.78330929    -0.73600
O287        O  0.00839849  0.54352100  0.75511965    -0.73600
O288        O  0.47370390  0.54831925  0.81658922    -0.73700
Ni289      Ni  0.44750008  0.55819497  0.77056053     1.25400
Ni290      Ni  0.99347828  0.54528054  0.78688671     1.25400
C291        C  0.44866949  0.55531038  0.82023731     0.88600
C292        C  0.99495849  0.54945043  0.73773173     0.88500
C293        C  0.43299088  0.53118452  0.77634134     0.88500
C294        C  0.00596718  0.57280357  0.78418654     0.88700
O295        O  0.14639523  0.68346146  0.79704180    -0.73600
O296        O  0.11251491  0.68660340  0.73371414    -0.73600
O297        O  0.14893077  0.70200275  0.76219567    -0.73700
O298        O  0.11145791  0.66798321  0.76835042    -0.73700
O299        O  0.06674003  0.67683867  0.78233585    -0.73700
O300        O  0.10592526  0.71166903  0.77767230    -0.73600
O301        O  0.06926699  0.69627392  0.74850262    -0.73600
O302        O  0.10149629  0.69227460  0.81110034    -0.73700
Ni303      Ni  0.13133274  0.68471025  0.76477195     1.25400
Ni304      Ni  0.08423844  0.69466049  0.78029628     1.25400
C305        C  0.12882584  0.68698608  0.81450468     0.88600
C306        C  0.08495311  0.69195023  0.73070768     0.88500
C307        C  0.13421993  0.71242551  0.76928252     0.88500
C308        C  0.08364363  0.66656431  0.77687136     0.88700
O309        O  0.15275457  0.56233340  0.50807537    -0.73600
O310        O  0.12807449  0.55575163  0.57291262    -0.73600
O311        O  0.16430765  0.54266629  0.54003363    -0.73700
O312        O  0.11878251  0.57540340  0.54125101    -0.73700
O313        O  0.07453793  0.56533030  0.52914182    -0.73700
O314        O  0.12160383  0.53210205  0.52624337    -0.73600
O315        O  0.08546542  0.54495359  0.55986686    -0.73600
O316        O  0.10847801  0.55227283  0.49625254    -0.73700
Ni317      Ni  0.14256396  0.55934481  0.54107465     1.25400
Ni318      Ni  0.09598797  0.54822348  0.52755855     1.25400
C319        C  0.13391310  0.55859998  0.49144304     0.88600
C320        C  0.10187948  0.54960015  0.57699225     0.88500
C321        C  0.15116837  0.53215299  0.53198411     0.88500
C322        C  0.08959196  0.57591742  0.53524431     0.88700
O323        O  0.42891770  0.67930055  0.50289740    -0.73600
O324        O  0.45043382  0.68595853  0.56861975    -0.73600
O325        O  0.41106975  0.69761516  0.53552746    -0.73700
O326        O  0.46618776  0.66754241  0.53642913    -0.73700
O327        O  0.00334194  0.67783599  0.52299882    -0.73700
O328        O  0.45041066  0.71077642  0.52381165    -0.73600
O329        O  0.98945192  0.69764815  0.55357632    -0.73600
O330        O  0.46939075  0.69219713  0.49241326    -0.73700
Ni331      Ni  0.43763603  0.68219398  0.53629240     1.25400
Ni332      Ni  0.97896027  0.69421349  0.52136677     1.25400
C333        C  0.44585441  0.68484336  0.48678631     0.88600
C334        C  0.97448445  0.69238674  0.57081797     0.88500
C335        C  0.42089132  0.70900165  0.52855920     0.88500
C336        C  0.99060134  0.66688049  0.52984230     0.88700
O337        O  0.29789324  0.42782545  0.53409461    -0.73600
O338        O  0.33081864  0.42998392  0.47014925    -0.73600
O339        O  0.33291199  0.41205976  0.50556232    -0.73700
O340        O  0.29337471  0.44562336  0.49831390    -0.73700
O341        O  0.33537939  0.45603665  0.51319630    -0.73700
O342        O  0.37772454  0.42147668  0.51799529    -0.73600
O343        O  0.37296847  0.44071040  0.48426920    -0.73600
O344        O  0.34257340  0.43719084  0.54669358    -0.73700
Ni345      Ni  0.31222655  0.42856558  0.50145535     1.25400
Ni346      Ni  0.35876934  0.43923948  0.51589774     1.25400
C347        C  0.31555058  0.43206529  0.55107433     0.88600
C348        C  0.35789067  0.43561887  0.46693271     0.88500
C349        C  0.36130961  0.41100702  0.51314000     0.88500
C350        C  0.30647103  0.45629908  0.50570434     0.88700
O351        O  0.51309753  0.30648155  0.51233326    -0.73600
O352        O  0.47910416  0.30423614  0.44912826    -0.73600
O353        O  0.46951900  0.32013849  0.48714079    -0.73700
O354        O  0.02238853  0.28693827  0.47606502    -0.73700
O355        O  0.48723090  0.27641990  0.48711278    -0.73700
O356        O  0.43154526  0.30632734  0.49944525    -0.73600
O357        O  0.44226372  0.29007138  0.46164490    -0.73600
O358        O  0.47541652  0.29259891  0.52437720    -0.73700
Ni359      Ni  0.49772694  0.30581862  0.48019828     1.25400
Ni360      Ni  0.45775504  0.29082389  0.49346577     1.25400
C361        C  0.49923837  0.30008332  0.52897130     0.88600
C362        C  0.45472544  0.29690758  0.44502406     0.88500
C363        C  0.44211783  0.31815270  0.49597822     0.88500
C364        C  0.51542434  0.27874062  0.47965652     0.88700
O365        O  0.02810812  0.42930287  0.24410926    -0.73600
O366        O  0.50587339  0.42950575  0.30990235    -0.73600
O367        O  0.49916747  0.41275878  0.27235390    -0.73700
O368        O  0.03322315  0.44551534  0.28204714    -0.73700
O369        O  0.51081800  0.45675982  0.27051502    -0.73700
O370        O  0.45925599  0.42561337  0.25955728    -0.73600
O371        O  0.46758055  0.44281362  0.29614585    -0.73600
O372        O  0.50098386  0.43979419  0.23419191    -0.73700
Ni373      Ni  0.52520043  0.42774223  0.27893804     1.25400
Ni374      Ni  0.48327789  0.44173006  0.26475170     1.25400
C375        C  0.52573024  0.43273625  0.22990837     0.88600
C376        C  0.48059067  0.43656095  0.31328720     0.88500
C377        C  0.47156177  0.41402190  0.26323282     0.88500
C378        C  0.02260354  0.45698345  0.27581947     0.88700
O379        O  0.29672293  0.31405323  0.21571088    -0.73600
O380        O  0.32175604  0.30752949  0.28063796    -0.73600
O381        O  0.33371098  0.32657417  0.24850192    -0.73700
O382        O  0.28333293  0.29521152  0.24831695    -0.73700
O383        O  0.32397251  0.28306570  0.23511693    -0.73700
O384        O  0.37585966  0.31486241  0.23630726    -0.73600
O385        O  0.36235554  0.29531223  0.26761870    -0.73600
O386        O  0.33910013  0.30244281  0.20388263    -0.73700
Ni387      Ni  0.30736573  0.31123422  0.24874369     1.25400
Ni388      Ni  0.35176492  0.29846590  0.23534967     1.25400
C389        C  0.31417856  0.30927990  0.19907646     0.88600
C390        C  0.34701664  0.30060077  0.28473327     0.88500
C391        C  0.36301087  0.32592334  0.24287230     0.88500
C392        C  0.29455609  0.28406818  0.24096501     0.88700
O393        O  0.15495190  0.06028166  0.90067381    -0.73600
O394        O  0.12405538  0.05773190  0.96466063    -0.73600
O395        O  0.15743462  0.04144270  0.93499428    -0.73700
O396        O  0.12296671  0.07654819  0.93046532    -0.73700
O397        O  0.07669362  0.06848324  0.91811528    -0.73700
O398        O  0.11275529  0.03287173  0.92036695    -0.73600
O399        O  0.07933370  0.04877396  0.95108215    -0.73600
O400        O  0.10872914  0.05238914  0.88781032    -0.73700
Ni401      Ni  0.14144943  0.05926559  0.93322202     1.25400
Ni402      Ni  0.09271242  0.05031200  0.91896018     1.25400
C403        C  0.13663375  0.05674662  0.88363814     0.88600
C404        C  0.09626269  0.05291747  0.96834461     0.88500
C405        C  0.14150595  0.03144037  0.92761659     0.88500
C406        C  0.09435940  0.07845031  0.92360678     0.88700
O407        O  0.43127192  0.17446890  0.94207472    -0.73600
O408        O  0.45718033  0.17929786  0.00725301    -0.73600
O409        O  0.41330134  0.19118513  0.97765103    -0.73700
O410        O  0.47324651  0.16263102  0.97148696    -0.73700
O411        O  0.00871856  0.17910235  0.95636766    -0.73700
O412        O  0.45030994  0.20585412  0.96734982    -0.73600
O413        O  0.99420054  0.19528980  0.99315465    -0.73600
O414        O  0.46699406  0.18958242  0.93131185    -0.73700
Ni415      Ni  0.44231014  0.17643764  0.97514661     1.25400
Ni416      Ni  0.48164163  0.19194550  0.96276329     1.25400
C417        C  0.44568559  0.18106557  0.92588582     0.88600
C418        C  0.48155558  0.18661535  0.01155925     0.88500
C419        C  0.42149616  0.20318546  0.97293424     0.88500
C420        C  0.50078573  0.16493300  0.96303269     0.88700
O421        O  0.43595039  0.05859624  0.19744878    -0.73600
O422        O  0.47029141  0.05690642  0.13456053    -0.73600
O423        O  0.42510873  0.04331346  0.15910186    -0.73700
O424        O  0.47990695  0.07226630  0.17312356    -0.73700
O425        O  0.01595954  0.05907359  0.18425590    -0.73700
O426        O  0.46213087  0.02886297  0.17109375    -0.73600
O427        O  0.00442936  0.04348701  0.14598375    -0.73600
O428        O  0.47279030  0.04402683  0.20947708    -0.73700
Ni429      Ni  0.45153357  0.05824532  0.16549065     1.25400
Ni430      Ni  0.49136038  0.04290274  0.17872532     1.25400
C431        C  0.44884009  0.05157180  0.21386805     0.88600
C432        C  0.49535505  0.04986357  0.13066448     0.88500
C433        C  0.43379004  0.03135924  0.16385237     0.88500
C434        C  0.00663875  0.07103589  0.17984320     0.88700
O435        O  0.15161193  0.17971407  0.23821687    -0.73600
O436        O  0.12340516  0.18268573  0.17304387    -0.73600
O437        O  0.15632515  0.19840923  0.20416676    -0.73700
O438        O  0.12072088  0.16370090  0.20690853    -0.73700
O439        O  0.07376879  0.17215728  0.21737922    -0.73700
O440        O  0.11171672  0.20734547  0.21841371    -0.73600
O441        O  0.07897703  0.19229551  0.18593023    -0.73600
O442        O  0.10463798  0.18752309  0.24973638    -0.73700
Ni443      Ni  0.13963639  0.18082453  0.20509953     1.25400
Ni444      Ni  0.09061580  0.19015261  0.21820452     1.25400
C445        C  0.13253932  0.18335185  0.25479386     0.88600
C446        C  0.09586022  0.18785879  0.16888698     0.88500
C447        C  0.14090278  0.20846708  0.21208951     0.88500
C448        C  0.09151136  0.16208675  0.21210036     0.88700
C449        C  0.03882686  0.13194393  0.20086591    -0.13500
C450        C  0.06056439  0.12143929  0.20447471     0.16800
C451        C  0.09148210  0.12434029  0.21228988     0.03100
C452        C  0.10036146  0.13763934  0.21592619    -0.12000
C453        C  0.07906294  0.14825737  0.21148314    -0.03100
C454        C  0.04782936  0.14529095  0.20420924     0.02400
C455        C  0.05101714  0.10766198  0.19832148     0.09200
N456        N  0.11483339  0.11400778  0.21487886     0.65600
H457        H  0.12446588  0.13968134  0.22133222     0.18500
N458        N  0.02581950  0.15567342  0.19824013     0.76000
H459        H  0.01515342  0.12978744  0.19461059     0.10000
C460        C  0.04557939  0.09787535  0.21570190     0.03700
C461        C  0.03384390  0.08531528  0.20911614    -0.05000
C462        C  0.02689343  0.08251310  0.18545090    -0.23400
C463        C  0.03387798  0.09204381  0.16801566     0.12900
C464        C  0.04587280  0.10452018  0.17453505    -0.12600
N465        N  0.04900906  0.10095077  0.24017208     0.64600
H466        H  0.49767252  0.08295335  0.22248150     0.12500
N467        N  0.02828420  0.08923372  0.14365207     0.61300
H468        H  0.05046783  0.11189338  0.16107977     0.08600
O469        O  0.50025184  0.15684124  0.21511380    -0.40200
O470        O  0.02498288  0.16010155  0.17742645    -0.39400
O471        O  0.12979627  0.10996536  0.19697189    -0.39400
O472        O  0.12518495  0.11111772  0.23514220    -0.37100
O473        O  0.00581843  0.09501250  0.13289991    -0.38000
O474        O  0.04823626  0.08238466  0.13220322    -0.34100
O475        O  0.48983877  0.11196404  0.23983492    -0.35600
O476        O  0.06951051  0.09480105  0.25234871    -0.39800
C477        C  0.49712480  0.18481943  0.07836797    -0.13500
C478        C  0.03218348  0.18892202  0.07705260     0.16800
C479        C  0.04728114  0.19248472  0.05583455     0.03100
C480        C  0.03027189  0.19244083  0.03454274    -0.12000
C481        C  0.99796645  0.18888145  0.03357030    -0.03100
C482        C  0.48062840  0.18439136  0.05668011     0.02400
C483        C  0.04956957  0.18910611  0.10018194     0.09200
N484        N  0.07979636  0.19649414  0.05560091     0.65600
H485        H  0.04265447  0.19515358  0.01863301     0.18500
N486        N  0.44739659  0.18160077  0.05670165     0.76000
H487        H  0.48445542  0.18271917  0.09444989     0.10000
C488        C  0.03743690  0.19619567  0.11968545     0.03700
C489        C  0.05347309  0.19589784  0.14135254    -0.05000
C490        C  0.08187533  0.18856742  0.14453602    -0.23400
C491        C  0.09429647  0.18155425  0.12490878     0.12900
C492        C  0.07816246  0.18187965  0.10307481    -0.12600
N493        N  0.00885880  0.20391170  0.11779041     0.64600
H494        H  0.04328916  0.20144406  0.15583382     0.12500
N495        N  0.12243962  0.17359047  0.12696385     0.61300
H496        H  0.08756270  0.17615461  0.08854500     0.08600
O497        O  0.42773166  0.19099888  0.05982977    -0.40200
O498        O  0.43810928  0.16965412  0.05782331    -0.39400
O499        O  0.10039587  0.18899600  0.04621353    -0.39400
O500        O  0.08682661  0.20839902  0.06063340    -0.37100
O501        O  0.12028967  0.16147410  0.13286673    -0.38000
O502        O  0.14825150  0.17786948  0.11871488    -0.34100
O503        O  0.48636384  0.20402116  0.12778368    -0.35600
O504        O  0.51773747  0.21723502  0.10824271    -0.39800
C505        C  0.04106286  0.04129207  0.07531844    -0.13500
C506        C  0.03939205  0.05308814  0.06195224     0.16800
C507        C  0.50586069  0.05436008  0.06450278     0.03100
C508        C  0.49226875  0.05374971  0.08707038    -0.12000
C509        C  0.51051343  0.05008498  0.10689019    -0.03100
C510        C  0.02534851  0.04017397  0.09700631     0.02400
C511        C  0.05476913  0.05330242  0.03823954     0.09200
N512        N  0.48636785  0.05800803  0.04486707     0.65600
H513        H  0.46734495  0.05605723  0.08902094     0.18500
N514        N  0.02661403  0.02769118  0.10918266     0.76000
H515        H  0.05428632  0.03280620  0.06868789     0.10000
C516        C  0.07899248  0.06239850  0.03218383     0.03700
C517        C  0.09253794  0.06200445  0.00950581    -0.05000
C518        C  0.08280472  0.05253817  0.99266077    -0.23400
C519        C  0.05904945  0.04329045  0.99903773     0.12900
C520        C  0.04528781  0.04380078  0.02149057    -0.12600
N521        N  0.09108883  0.07169581  0.04908720     0.64600
H522        H  0.11077264  0.06912049  0.00509244     0.12500
N523        N  0.55310421  0.02915975  0.98485674     0.61300
H524        H  0.52846535  0.03369938  0.02681192     0.08600
O525        O  0.05158469  0.02433142  0.12006394    -0.40200
O526        O  0.00532474  0.01911545  0.10547587    -0.39400
O527        O  0.46707962  0.04966554  0.03641876    -0.39400
O528        O  0.48486500  0.07006337  0.03843496    -0.37100
O529        O  0.06302265  0.02169956  0.98412843    -0.38000
O530        O  0.52690298  0.02891702  0.97402442    -0.34100
O531        O  0.10616398  0.06741953  0.06682356    -0.35600
O532        O  0.09205674  0.08397817  0.04410470    -0.39800
C533        C  0.03715607  0.13257176  0.96064864    -0.13500
C534        C  0.04994647  0.13215941  0.93790190     0.16800
C535        C  0.54717186  0.14073296  0.92561882     0.03100
C536        C  0.53416578  0.15273347  0.93416180    -0.12000
C537        C  0.02169005  0.15578041  0.95515402    -0.03100
C538        C  0.02307080  0.14423384  0.96933937     0.02400
C539        C  0.06174973  0.11915720  0.92914083     0.09200
N540        N  0.55723351  0.14000999  0.90161919     0.65600
H541        H  0.53218640  0.16121067  0.92245244     0.18500
N542        N  0.01001244  0.14416700  0.99255851     0.76000
H543        H  0.03749152  0.12369412  0.97150023     0.10000
C544        C  0.09434885  0.11613275  0.92895302     0.03700
C545        C  0.10437364  0.10291815  0.92562725    -0.05000
C546        C  0.08233833  0.09246867  0.92277201    -0.23400
C547        C  0.04971341  0.09574946  0.92114883     0.12900
C548        C  0.03973743  0.10901479  0.92447069    -0.12600
N549        N  0.11744368  0.12614156  0.93408272     0.64600
H550        H  0.12952686  0.10079366  0.92649650     0.12500
N551        N  0.52472568  0.08223577  0.92369414     0.61300
H552        H  0.51238521  0.10778466  0.93065507     0.08600
O553        O  0.02731606  0.14735471  0.00983405    -0.40200
O554        O  0.98371322  0.13856602  0.99621547    -0.39400
O555        O  0.53795036  0.13604717  0.88609082    -0.39400
O556        O  0.58209432  0.14601218  0.89537687    -0.37100
O557        O  0.01126128  0.08112625  0.93494400    -0.38000
O558        O  0.51167085  0.07974243  0.90415239    -0.34100
O559        O  0.12406732  0.12880914  0.95526372    -0.35600
O560        O  0.13549173  0.13021069  0.91792301    -0.39800
C561        C  0.17849265  0.23914485  0.23975608    -0.13500
C562        C  0.20192181  0.24225167  0.22301462     0.16800
C563        C  0.20295230  0.23488238  0.20182914     0.03100
C564        C  0.18155596  0.22442000  0.19804801    -0.12000
C565        C  0.15853764  0.22114307  0.21493497    -0.03100
C566        C  0.15686118  0.22872971  0.23586627     0.02400
C567        C  0.22584778  0.25279552  0.22834307     0.09200
N568        N  0.22566278  0.23787712  0.18394715     0.65600
H569        H  0.18335300  0.21865289  0.18201892     0.18500
N570        N  0.13554906  0.22515871  0.25434410     0.76000
H571        H  0.17784936  0.24441380  0.25632510     0.10000
C572        C  0.21638154  0.26574145  0.23517401     0.03700
C573        C  0.23922256  0.27544763  0.24008234    -0.05000
C574        C  0.27199812  0.27270257  0.23813755    -0.23400
C575        C  0.28156173  0.25959783  0.23195651     0.12900
C576        C  0.25854695  0.24980154  0.22722124    -0.12600
N577        N  0.18355389  0.26942677  0.23614197     0.64600
H578        H  0.23096370  0.28535054  0.24460152     0.12500
N579        N  0.31439210  0.25597531  0.23068043     0.61300
H580        H  0.26625765  0.23981321  0.22284631     0.08600
O581        O  0.14434087  0.21679655  0.26970402    -0.40200
O582        O  0.11098138  0.23214908  0.25789728    -0.39400
O583        O  0.24783597  0.22969939  0.17962607    -0.39400
O584        O  0.22054720  0.24748183  0.17002393    -0.37100
O585        O  0.32893508  0.25244975  0.24915252    -0.38000
O586        O  0.32717566  0.25410440  0.21085336    -0.34100
O587        O  0.17095572  0.27209422  0.25575851    -0.35600
O588        O  0.16899192  0.27235795  0.21736415    -0.39800
C589        C  0.45449189  0.37899073  0.24152752    -0.13500
C590        C  0.42242141  0.37759072  0.24755475     0.16800
C591        C  0.40606788  0.38857055  0.25761857     0.03100
C592        C  0.42206236  0.40058285  0.26190279    -0.12000
C593        C  0.45437364  0.40178701  0.25658402    -0.03100
C594        C  0.47049128  0.39094843  0.24590154     0.02400
C595        C  0.40766343  0.36419071  0.24574147     0.09200
N596        N  0.37330358  0.38761529  0.26386797     0.65600
H597        H  0.40949227  0.40880799  0.27001619     0.18500
N598        N  0.50310755  0.39196743  0.23919301     0.76000
H599        H  0.46743930  0.37065793  0.23414528     0.10000
C600        C  0.40724099  0.35685630  0.22444909     0.03700
C601        C  0.39443588  0.34392584  0.22397095    -0.05000
C602        C  0.38160805  0.33828799  0.24442127    -0.23400
C603        C  0.38261680  0.34551222  0.26571676     0.12900
C604        C  0.39583199  0.35827582  0.26628211    -0.12600
N605        N  0.41812589  0.36267167  0.20296596     0.64600
H606        H  0.39303900  0.33859498  0.20745917     0.12500
N607        N  0.37030892  0.33997589  0.28700007     0.61300
H608        H  0.39708982  0.36352522  0.28286138     0.08600
O609        O  0.00526042  0.39636471  0.21724440    -0.40200
O610        O  0.01617814  0.38822193  0.25197776    -0.39400
O611        O  0.36542531  0.38766551  0.28531211    -0.39400
O612        O  0.35225922  0.38913880  0.24821502    -0.37100
O613        O  0.38718425  0.33196798  0.29888073    -0.38000
O614        O  0.34557943  0.34495833  0.29603730    -0.34100
O615        O  0.44318185  0.35831008  0.19344642    -0.35600
O616        O  0.39997288  0.37038710  0.19152583    -0.39800
C617        C  0.36586553  0.30601227  0.35032120    -0.13500
C618        C  0.39347443  0.29821235  0.35291608     0.16800
C619        C  0.40415535  0.29055339  0.33371442     0.03100
C620        C  0.38784384  0.29105854  0.31216240    -0.12000
C621        C  0.36043101  0.29907798  0.30911513    -0.03100
C622        C  0.34904164  0.30636333  0.32882602     0.02400
C623        C  0.41017664  0.29773808  0.37604658     0.09200
N624        N  0.43218995  0.28250009  0.33561951     0.65600
H625        H  0.39726346  0.28533076  0.29762209     0.18500
N626        N  0.32034867  0.31404132  0.32755789     0.76000
H627        H  0.35707652  0.31167558  0.36515391     0.10000
C628        C  0.42960607  0.30829429  0.38369164     0.03700
C629        C  0.44451643  0.30768629  0.40585803    -0.05000
C630        C  0.44010050  0.29670357  0.42097890    -0.23400
C631        C  0.42058893  0.28608530  0.41312503     0.12900
C632        C  0.40610213  0.28665579  0.39080152    -0.12600
N633        N  0.43441290  0.31971692  0.36908110     0.64600
H634        H  0.45903316  0.31597194  0.41141297     0.12500
N635        N  0.41535910  0.27456831  0.42743948     0.61300
H636        H  0.39129736  0.27849397  0.38508517     0.08600
O637        O  0.32110795  0.32646420  0.33130755    -0.40200
O638        O  0.29398828  0.30810704  0.32776779    -0.39400
O639        O  0.42979154  0.26998080  0.33743001    -0.39400
O640        O  0.45892951  0.28758584  0.33140708    -0.37100
O641        O  0.39011610  0.27372095  0.43927316    -0.38000
O642        O  0.43247416  0.26430359  0.42457353    -0.34100
O643        O  0.41925010  0.33038227  0.37315187    -0.35600
O644        O  0.45694592  0.31975687  0.35446777    -0.39800
C645        C  0.39065058  0.42601109  0.40642413    -0.13500
C646        C  0.41179233  0.43658502  0.40224869     0.16800
C647        C  0.41287241  0.44723040  0.41852006     0.03100
C648        C  0.39386390  0.44697072  0.43874244    -0.12000
C649        C  0.37335562  0.43623964  0.44337089    -0.03100
C650        C  0.37151195  0.42576792  0.42674536     0.02400
C651        C  0.43119306  0.43678219  0.38024767     0.09200
N652        N  0.43417360  0.45814505  0.41528962     0.65600
H653        H  0.39582591  0.45507709  0.45123036     0.18500
N654        N  0.35157159  0.41450702  0.43074284     0.76000
H655        H  0.38901423  0.41792266  0.39390448     0.10000
C656        C  0.45286154  0.42645275  0.37458018     0.03700
C657        C  0.46962823  0.42675852  0.35315803    -0.05000
C658        C  0.46511477  0.43722856  0.33693900    -0.23400
C659        C  0.44381437  0.44771634  0.34297393     0.12900
C660        C  0.42719256  0.44737554  0.36434200    -0.12600
N661        N  0.45835961  0.41563931  0.39052486     0.64600
H662        H  0.48564086  0.41862770  0.34901432     0.12500
N663        N  0.43875642  0.45888529  0.32769621     0.61300
H664        H  0.41062550  0.45533190  0.36832380     0.08600
O665        O  0.36305481  0.40408553  0.44003392    -0.40200
O666        O  0.32433713  0.41415231  0.42144088    -0.39400
O667        O  0.42323142  0.46961172  0.41060867    -0.39400
O668        O  0.46287772  0.45688449  0.42139072    -0.37100
O669        O  0.45436622  0.46944939  0.33097114    -0.38000
O670        O  0.41457990  0.45917643  0.31450708    -0.34100
O671        O  0.44750135  0.40421571  0.38583016    -0.35600
O672        O  0.47840511  0.41693290  0.40692350    -0.39800
C673        C  0.41454620  0.38011444  0.51251901    -0.13500
C674        C  0.39149386  0.37006298  0.51423033     0.16800
C675        C  0.35969545  0.37358920  0.51833721     0.03100
C676        C  0.35105034  0.38703496  0.51924250    -0.12000
C677        C  0.37360786  0.39722220  0.51609726    -0.03100
C678        C  0.40585385  0.39367722  0.51356072     0.02400
C679        C  0.40080496  0.35598518  0.51062188     0.09200
N680        N  0.33587419  0.36363126  0.52152913     0.65600
H681        H  0.32628084  0.38949155  0.52196168     0.18500
N682        N  0.42972239  0.40362337  0.51082834     0.76000
H683        H  0.43913254  0.37741955  0.50962723     0.10000
C684        C  0.39267264  0.34911782  0.48973537     0.03700
C685        C  0.40396441  0.33608537  0.48608391    -0.05000
C686        C  0.42360689  0.32993233  0.50284226    -0.23400
C687        C  0.43071753  0.33660755  0.52405236     0.12900
C688        C  0.41910668  0.34954539  0.52787980    -0.12600
N689        N  0.37536788  0.35563759  0.47125939     0.64600
H690        H  0.39933345  0.33116346  0.46949080     0.12500
N691        N  0.45145982  0.33069915  0.54114321     0.61300
H692        H  0.42532591  0.35474935  0.54390557     0.08600
O693        O  0.43999291  0.40633951  0.49053103    -0.40200
O694        O  0.44438559  0.40784876  0.52873843    -0.39400
O695        O  0.33249306  0.35834905  0.54154412    -0.39400
O696        O  0.31427557  0.36230936  0.50625810    -0.37100
O697        O  0.48073152  0.33331031  0.54068921    -0.38000
O698        O  0.43990455  0.32494779  0.55891588    -0.34100
O699        O  0.38877121  0.36454441  0.45916534    -0.35600
O700        O  0.34940522  0.35081238  0.46419810    -0.39800
C701        C  0.19773171  0.50453585  0.50204949    -0.13500
C702        C  0.21746636  0.50004329  0.52048929     0.16800
C703        C  0.21412275  0.50585143  0.54301198     0.03100
C704        C  0.19149685  0.51598145  0.54668893    -0.12000
C705        C  0.17153543  0.52029985  0.52832237    -0.03100
C706        C  0.17485398  0.51453698  0.50581073     0.02400
C707        C  0.24104202  0.48921104  0.51580682     0.09200
N708        N  0.23310620  0.50141320  0.56243014     0.65600
H709        H  0.18957273  0.52052100  0.56389330     0.18500
N710        N  0.15704346  0.51950137  0.48616621     0.76000
H711        H  0.20059597  0.50049103  0.48455461     0.10000
C712        C  0.23128587  0.47708330  0.50566676     0.03700
C713        C  0.25353109  0.46704419  0.50106216    -0.05000
C714        C  0.28590279  0.46849632  0.50697309    -0.23400
C715        C  0.29594241  0.48083798  0.51643432     0.12900
C716        C  0.27353797  0.49107518  0.52069957    -0.12600
N717        N  0.19844805  0.47445395  0.50123189     0.64600
H718        H  0.24478095  0.45777528  0.49387540     0.12500
N719        N  0.32860877  0.48318653  0.52176498     0.61300
H720        H  0.28154306  0.50048558  0.52774499     0.08600
O721        O  0.16749678  0.52926419  0.47452016    -0.40200
O722        O  0.13434293  0.51273911  0.47799641    -0.39400
O723        O  0.25504148  0.50875758  0.57018304    -0.39400
O724        O  0.22445814  0.49141126  0.57426462    -0.37100
O725        O  0.34710183  0.48695240  0.50564867    -0.38000
O726        O  0.33769716  0.48361313  0.54295719    -0.34100
O727        O  0.18874937  0.47303314  0.48032333    -0.35600
O728        O  0.18045589  0.47142229  0.51813128    -0.39800
C729        C  0.04349456  0.60678177  0.51638750    -0.13500
C730        C  0.05407198  0.61599721  0.53328474     0.16800
C731        C  0.07423078  0.61171864  0.55157291     0.03100
C732        C  0.08430984  0.59843039  0.55240061    -0.12000
C733        C  0.07429690  0.58918231  0.53531899    -0.03100
C734        C  0.05332503  0.59338097  0.51735778     0.02400
C735        C  0.04078137  0.62962550  0.53325609     0.09200
N736        N  0.08504436  0.62082626  0.56922356     0.65600
H737        H  0.10038159  0.59537744  0.56626507     0.18500
N738        N  0.04277886  0.58433405  0.49953882     0.76000
H739        H  0.52873188  0.61192487  0.50727081     0.10000
C740        C  0.04892814  0.63912300  0.51603443     0.03700
C741        C  0.03323738  0.65152782  0.51551659    -0.05000
C742        C  0.00947644  0.65450297  0.53204420    -0.23400
C743        C  0.00253077  0.64512696  0.54989957     0.12900
C744        C  0.01810016  0.63281147  0.55029298    -0.12600
N745        N  0.07315947  0.63632171  0.49913899     0.64600
H746        H  0.54002609  0.65979227  0.50113993     0.12500
N747        N  0.98022386  0.64805838  0.56815060     0.61300
H748        H  0.01204424  0.62561053  0.56368586     0.08600
O749        O  0.55337783  0.58530048  0.48406622    -0.40200
O750        O  0.01584568  0.57897510  0.50134423    -0.39400
O751        O  0.07220757  0.62083845  0.58929230    -0.39400
O752        O  0.11076078  0.62699626  0.56621844    -0.37100
O753        O  0.95222520  0.64371319  0.56652875    -0.38000
O754        O  0.99031100  0.65212830  0.58782217    -0.34100
O755        O  0.56251131  0.63441585  0.47793222    -0.35600
O756        O  0.10187624  0.63823959  0.50451036    -0.39800
C757        C  0.99147591  0.68839130  0.63714734    -0.13500
C758        C  0.02086803  0.69491049  0.63928933     0.16800
C759        C  0.03376743  0.70106243  0.61920469     0.03100
C760        C  0.01761324  0.70051847  0.59757587    -0.12000
C761        C  0.98840581  0.69379424  0.59509804    -0.03100
C762        C  0.47752163  0.68656240  0.61699737     0.02400
C763        C  0.03813244  0.69483912  0.66238379     0.09200
N764        N  0.06325712  0.70802599  0.62048225     0.65600
H765        H  0.02848944  0.70524491  0.58255526     0.18500
N766        N  0.44834122  0.67938493  0.61560867     0.76000
H767        H  0.48626005  0.68015394  0.65259817     0.10000
C768        C  0.02403658  0.70006191  0.68291878     0.03700
C769        C  0.03980759  0.69908761  0.70466824    -0.05000
C770        C  0.07011002  0.69309433  0.70669103    -0.23400
C771        C  0.08464026  0.68818922  0.68588998     0.12900
C772        C  0.06854641  0.68901297  0.66412702    -0.12600
N773        N  0.99397800  0.70675339  0.68187689     0.64600
H774        H  0.02812660  0.70313927  0.72002795     0.12500
N775        N  0.11555130  0.68222861  0.68643459     0.61300
H776        H  0.07964408  0.68487283  0.64861481     0.08600
O777        O  0.42247973  0.68550927  0.61904909    -0.40200
O778        O  0.44875814  0.66677925  0.61595742    -0.39400
O779        O  0.08790197  0.70282411  0.61168441    -0.39400
O780        O  0.06340387  0.72020607  0.62623983    -0.37100
O781        O  0.11832730  0.66970365  0.68814268    -0.38000
O782        O  0.13943298  0.68912708  0.68101833    -0.34100
O783        O  0.47412951  0.69463318  0.69415123    -0.35600
O784        O  0.99257372  0.71873006  0.67498407    -0.39800
C785        C  0.04890107  0.53929283  0.68624718    -0.13500
C786        C  0.04302763  0.54955792  0.66998414     0.16800
C787        C  0.02029570  0.55946556  0.67564807     0.03100
C788        C  0.00424088  0.55905961  0.69738613    -0.12000
C789        C  0.01033702  0.54886876  0.71392358    -0.03100
C790        C  0.03293841  0.53885706  0.70796882     0.02400
C791        C  0.05961644  0.54930269  0.64673746     0.09200
N792        N  0.01259897  0.56981705  0.65923165     0.65600
H793        H  0.48072864  0.56469208  0.69945505     0.18500
N794        N  0.03944076  0.52792639  0.72347326     0.76000
H795        H  0.06584873  0.53151249  0.68198708     0.10000
C796        C  0.08431857  0.55822623  0.64119859     0.03700
C797        C  0.09866464  0.55783817  0.61879820    -0.05000
C798        C  0.08905987  0.54855964  0.60155778    -0.23400
C799        C  0.06502568  0.53930250  0.60759424     0.12900
C800        C  0.05064052  0.53978204  0.62990542    -0.12600
N801        N  0.09559615  0.56755411  0.65830724     0.64600
H802        H  0.11696245  0.56499915  0.61478551     0.12500
N803        N  0.05511073  0.52918818  0.59142979     0.61300
H804        H  0.03216399  0.53271949  0.63405815     0.08600
O805        O  0.06508875  0.52763753  0.73502422    -0.40200
O806        O  0.02239451  0.51761169  0.72251525    -0.39400
O807        O  0.48873591  0.56459022  0.64061336    -0.39400
O808        O  0.02028812  0.58171708  0.66373544    -0.37100
O809        O  0.06860316  0.51789522  0.59183572    -0.38000
O810        O  0.53388734  0.52976902  0.57996188    -0.34100
O811        O  0.11553857  0.56374398  0.67356230    -0.35600
O812        O  0.09087895  0.57989495  0.65523531    -0.39800
C813        C  0.04289634  0.60510074  0.76643005    -0.13500
C814        C  0.04620824  0.61151572  0.78827731     0.16800
C815        C  0.03884995  0.60453754  0.80911939     0.03100
C816        C  0.02822754  0.59129663  0.80775662    -0.12000
C817        C  0.02444746  0.58506469  0.78580479    -0.03100
C818        C  0.03205194  0.59200361  0.76506408     0.02400
C819        C  0.05687929  0.62555793  0.78828278     0.09200
N820        N  0.04114258  0.61085615  0.83163118     0.65600
H821        H  0.02134391  0.58615641  0.82365570     0.18500
N822        N  0.49346414  0.59394468  0.74681875     0.76000
H823        H  0.52223364  0.61608282  0.75823914     0.10000
C824        C  0.08553604  0.62890270  0.77722725     0.03700
C825        C  0.09292538  0.64223289  0.77333225    -0.05000
C826        C  0.07262127  0.65265103  0.78074733    -0.23400
C827        C  0.04425823  0.64931564  0.79263507     0.12900
C828        C  0.03651856  0.63580610  0.79613563    -0.12600
N829        N  0.10750504  0.61880003  0.76977534     0.64600
H830        H  0.11506085  0.64433119  0.76456281     0.12500
N831        N  0.02291454  0.65939190  0.80102502     0.61300
H832        H  0.01415587  0.63333509  0.80421424     0.08600
O833        O  0.50448142  0.58994635  0.72737725    -0.40200
O834        O  0.46585365  0.59890947  0.74756447    -0.39400
O835        O  0.01641541  0.61552517  0.84118376    -0.39400
O836        O  0.06600173  0.60932220  0.84381687    -0.37100
O837        O  0.00096384  0.66358539  0.78772314    -0.38000
O838        O  0.02175425  0.66191774  0.82279340    -0.34100
O839        O  0.11212174  0.61687758  0.74806649    -0.35600
O840        O  0.12631741  0.61366004  0.78460516    -0.39800
C841        C  0.20007275  0.00365928  0.94026579    -0.13500
C842        C  0.20230859  0.99753766  0.91807766     0.16800
C843        C  0.18101091  0.00140748  0.90009048     0.03100
C844        C  0.15894340  0.01174870  0.90417559    -0.12000
C845        C  0.15809565  0.01841536  0.92597085    -0.03100
C846        C  0.17828126  0.01402977  0.94428625     0.02400
C847        C  0.22686376  0.98702622  0.91445098     0.09200
N848        N  0.18314916  0.99565124  0.87709710     0.65600
H849        H  0.14416245  0.01517857  0.88987640     0.18500
N850        N  0.17692481  0.02006185  0.96710023     0.76000
H851        H  0.21551969  0.00048027  0.95439284     0.10000
C852        C  0.25938372  0.98992967  0.91696734     0.03700
C853        C  0.28192882  0.97958351  0.91691715    -0.05000
C854        C  0.27274944  0.96615566  0.91460679    -0.23400
C855        C  0.24004742  0.96331774  0.91121100     0.12900
C856        C  0.21757791  0.97374677  0.91099951    -0.12600
N857        N  0.26984517  0.00337701  0.92001497     0.64600
H858        H  0.30662257  0.98209885  0.91931772     0.12500
N859        N  0.22881321  0.94989729  0.90958135     0.61300
H860        H  0.19267951  0.97139685  0.90937832     0.08600
O861        O  0.19923140  0.02749334  0.97394135    -0.40200
O862        O  0.15638563  0.01619641  0.98170271    -0.39400
O863        O  0.16192496  0.98773555  0.87006330    -0.39400
O864        O  0.20318731  0.00009546  0.86262679    -0.37100
O865        O  0.22125043  0.94372149  0.92810361    -0.38000
O866        O  0.22102548  0.94519435  0.88976980    -0.34100
O867        O  0.27881913  0.00730284  0.94007870    -0.35600
O868        O  0.27528400  0.01049465  0.90214871    -0.39800
C869        C  0.41602918  0.89551765  0.98331755    -0.13500
C870        C  0.41885377  0.88380626  0.96988189     0.16800
C871        C  0.41026396  0.88401536  0.94587897     0.03100
C872        C  0.39788248  0.89568699  0.93586628    -0.12000
C873        C  0.39415941  0.90731703  0.94937192    -0.03100
C874        C  0.40364508  0.90725120  0.97327331     0.02400
C875        C  0.43007119  0.87127253  0.98099020     0.09200
N876        N  0.41378378  0.87237591  0.93149025     0.65600
H877        H  0.39042308  0.89557533  0.91764393     0.18500
N878        N  0.39771582  0.91850527  0.98817856     0.76000
H879        H  0.42221403  0.89539398  0.00178723     0.10000
C880        C  0.46123118  0.87006597  0.98967681     0.03700
C881        C  0.47298402  0.85749352  0.99602999    -0.05000
C882        C  0.45406065  0.84600300  0.99393507    -0.23400
C883        C  0.42171176  0.84749201  0.98799280     0.12900
C884        C  0.41003578  0.86009161  0.98133279    -0.12600
N885        N  0.48206481  0.88128578  0.99024719     0.64600
H886        H  0.49762470  0.85661042  0.00115295     0.12500
N887        N  0.40100632  0.83624765  0.98708614     0.61300
H888        H  0.38570950  0.86105758  0.97552270     0.08600
O889        O  0.41987492  0.92657336  0.99254926    -0.40200
O890        O  0.37308266  0.91870557  0.00079098    -0.39400
O891        O  0.38966813  0.86563358  0.92592677    -0.39400
O892        O  0.44003462  0.86997981  0.92163052    -0.37100
O893        O  0.38688430  0.83257267  0.00554630    -0.38000
O894        O  0.39272865  0.83150836  0.96741204    -0.34100
O895        O  0.48990674  0.88632417  0.00978960    -0.35600
O896        O  0.49652431  0.88471216  0.97178517    -0.39800
C897        C  0.21395881  0.76936522  0.77913281    -0.13500
C898        C  0.22245428  0.75611267  0.77401013     0.16800
C899        C  0.25430566  0.75319635  0.76805946     0.03100
C900        C  0.27651010  0.76351231  0.76622123    -0.12000
C901        C  0.26787823  0.77688318  0.77049011    -0.03100
C902        C  0.23624074  0.77969201  0.77764526     0.02400
C903        C  0.19733917  0.74570828  0.77255889     0.09200
N904        N  0.26453505  0.73976369  0.76378065     0.65600
H905        H  0.30048295  0.76100798  0.76110598     0.18500
N906        N  0.22580669  0.79300384  0.78270885     0.76000
H907        H  0.18967778  0.77181537  0.78340317     0.10000
C908        C  0.17584818  0.74329074  0.79115619     0.03700
C909        C  0.15305934  0.73314524  0.78899855    -0.05000
C910        C  0.15172391  0.72517251  0.76867046    -0.23400
C911        C  0.17207858  0.72807642  0.74965569     0.12900
C912        C  0.19429310  0.73834433  0.75162672    -0.12600
N913        N  0.17829590  0.75037487  0.81295116     0.64600
H914        H  0.13810149  0.73086386  0.80384855     0.12500
N915        N  0.17081107  0.72051264  0.72828464     0.61300
H916        H  0.20945645  0.74045630  0.73683691     0.08600
O917        O  0.22433853  0.79689454  0.80383751    -0.40200
O918        O  0.21260447  0.79986091  0.76675618    -0.39400
O919        O  0.27367705  0.73639167  0.74345195    -0.39400
O920        O  0.26976034  0.73206580  0.78097885    -0.37100
O921        O  0.15132007  0.72380834  0.71235840    -0.38000
O922        O  0.19254196  0.71216923  0.72371891    -0.34100
O923        O  0.15630032  0.75824425  0.81911453    -0.35600
O924        O  0.19940173  0.74705296  0.82768911    -0.39800
C925        C  0.44896164  0.81610958  0.88783150    -0.13500
C926        C  0.42457310  0.80674537  0.88469684     0.16800
C927        C  0.41922709  0.79727524  0.90259455     0.03100
C928        C  0.43774873  0.79738820  0.92321361    -0.12000
C929        C  0.46196615  0.80686256  0.92668108    -0.03100
C930        C  0.46759490  0.81623833  0.90850073     0.02400
C931        C  0.40608676  0.80646695  0.86216889     0.09200
N932        N  0.39411976  0.78779597  0.90050819     0.65600
H933        H  0.43259252  0.79017140  0.93679912     0.18500
N934        N  0.99660378  0.82523572  0.90866978     0.76000
H935        H  0.45363656  0.82332131  0.87414841     0.10000
C936        C  0.38619396  0.81715388  0.85517398     0.03700
C937        C  0.36960781  0.81658281  0.83361238    -0.05000
C938        C  0.37284874  0.80555632  0.81835925    -0.23400
C939        C  0.39306243  0.79488020  0.82544751     0.12900
C940        C  0.40910374  0.79539212  0.84717090    -0.12600
N941        N  0.38234376  0.82862390  0.86990678     0.64600
H942        H  0.35462659  0.82491510  0.82863626     0.12500
N943        N  0.39766678  0.78337355  0.81088783     0.61300
H944        H  0.42444213  0.78717798  0.85217389     0.08600
O945        O  0.98669827  0.83663795  0.91483087    -0.40200
O946        O  0.02462361  0.82389716  0.90115603    -0.39400
O947        O  0.40060706  0.77560977  0.89723117    -0.39400
O948        O  0.36613146  0.79121306  0.90580168    -0.37100
O949        O  0.42183197  0.78265713  0.79782341    -0.38000
O950        O  0.38157294  0.77300087  0.81465859    -0.34100
O951        O  0.39620536  0.83936297  0.86469026    -0.35600
O952        O  0.36118753  0.82868035  0.88561209    -0.39800
C953        C  0.44762878  0.93049711  0.78963087    -0.13500
C954        C  0.42021420  0.93830448  0.79295413     0.16800
C955        C  0.40869542  0.94609392  0.77411825     0.03100
C956        C  0.42393413  0.94563304  0.75217873    -0.12000
C957        C  0.45116600  0.93763705  0.74848352    -0.03100
C958        C  0.46319062  0.93012191  0.76773599     0.02400
C959        C  0.40447210  0.93845776  0.81638475     0.09200
N960        N  0.38209603  0.95485646  0.77719407     0.65600
H961        H  0.41431869  0.95163196  0.73799615     0.18500
N962        N  0.49076053  0.92184517  0.76536902     0.76000
H963        H  0.45688411  0.92459752  0.80408263     0.10000
C964        C  0.37609378  0.93146963  0.82060379     0.03700
C965        C  0.36233604  0.93163224  0.84315183    -0.05000
C966        C  0.37651237  0.93861355  0.86196654    -0.23400
C967        C  0.40504636  0.94567055  0.85748062     0.12900
C968        C  0.41857430  0.94552508  0.83490264    -0.12600
N969        N  0.36161512  0.92371617  0.80240578     0.64600
H970        H  0.34074465  0.92610095  0.84594660     0.12500
N971        N  0.42120846  0.95281506  0.87567773     0.61300
H972        H  0.44038838  0.95087199  0.83186197     0.08600
O973        O  0.48762316  0.90945372  0.76203614    -0.40200
O974        O  0.51762046  0.92642133  0.77092678    -0.39400
O975        O  0.88670907  0.96405154  0.79009437    -0.39400
O976        O  0.35610028  0.95223407  0.76714786    -0.37100
O977        O  0.41853731  0.96536713  0.87677431    -0.38000
O978        O  0.44262326  0.94699869  0.88750001    -0.34100
O979        O  0.37036403  0.91175642  0.79937209    -0.35600
O980        O  0.33618983  0.92779026  0.79295174    -0.39800
C981        C  0.39712672  0.88411686  0.70087875    -0.13500
C982        C  0.41728670  0.87285644  0.70042377     0.16800
C983        C  0.44751401  0.87394117  0.69017703     0.03100
C984        C  0.45804077  0.88634452  0.68218649    -0.12000
C985        C  0.43905463  0.89788725  0.68446232    -0.03100
C986        C  0.40772979  0.89660028  0.69292872     0.02400
C987        C  0.40690636  0.86017213  0.71139124     0.09200
N988        N  0.46888685  0.86279470  0.68964946     0.65600
H989        H  0.48197630  0.88708892  0.67556645     0.18500
N990        N  0.38722615  0.90796257  0.69517005     0.76000
H991        H  0.37356160  0.88330182  0.70812660     0.10000
C992        C  0.39822433  0.85972304  0.73534010     0.03700
C993        C  0.38645206  0.84789884  0.74494911    -0.05000
C994        C  0.38358420  0.83632980  0.73116889    -0.23400
C995        C  0.39329437  0.83660314  0.70740215     0.12900
C996        C  0.40491065  0.84849965  0.69770761    -0.12600
N997        N  0.40131678  0.87120763  0.75015034     0.64600
H998        H  0.37899459  0.84781194  0.76314252     0.12500
N999        N  0.38862743  0.82533120  0.69232378     0.61300
H1000       H  0.41110661  0.84877628  0.67927762     0.08600
O1001       O  0.38386966  0.91351461  0.71498933    -0.40200
O1002       O  0.36846299  0.91091049  0.67856546    -0.39400
O1003       O  0.98051068  0.85768082  0.66392553    -0.39400
O1004       O  0.48357352  0.85941938  0.70814536    -0.37100
O1005       O  0.36197434  0.82364829  0.68257732    -0.38000
O1006       O  0.41231543  0.81866616  0.68530155    -0.34100
O1007       O  0.37682556  0.87678881  0.75845867    -0.35600
O1008       O  0.42837028  0.87450247  0.75771666    -0.39800
C1009       C  0.38489308  0.68259720  0.38032272    -0.13500
C1010       C  0.41711765  0.68215831  0.38641865     0.16800
C1011       C  0.44007172  0.68235118  0.36825066     0.03100
C1012       C  0.43040756  0.68344208  0.34454504    -0.12000
C1013       C  0.39808256  0.68428863  0.33852686    -0.03100
C1014       C  0.37523518  0.68358783  0.35674975     0.02400
C1015       C  0.42584156  0.68242761  0.41190452     0.09200
N1016       N  0.47318420  0.68110503  0.37352187     0.65600
H1017       H  0.44821109  0.68375471  0.33086516     0.18500
N1018       N  0.34198005  0.68352108  0.35160930     0.76000
H1019       H  0.36706116  0.68235976  0.39400626     0.10000
C1020       C  0.44129776  0.69355287  0.42180062     0.03700
C1021       C  0.44790167  0.69386282  0.44600626    -0.05000
C1022       C  0.43840092  0.68348148  0.46114778    -0.23400
C1023       C  0.42244221  0.67242644  0.45129316     0.12900
C1024       C  0.41642464  0.67195953  0.42685395    -0.12600
N1025       N  0.44833044  0.70507568  0.40786303     0.64600
H1026       H  0.98273740  0.67716928  0.45064579     0.12500
N1027       N  0.41281669  0.66147247  0.46566055     0.61300
H1028       H  0.40422193  0.66345243  0.41954283     0.08600
O1029       O  0.32537921  0.69378282  0.35583590    -0.40200
O1030       O  0.32843811  0.67260875  0.34700604    -0.39400
O1031       O  0.48426052  0.66989256  0.37969987    -0.39400
O1032       O  0.49200638  0.69021390  0.36733750    -0.37100
O1033       O  0.38416821  0.66054926  0.47188988    -0.38000
O1034       O  0.43128902  0.65161443  0.46840068    -0.34100
O1035       O  0.99087283  0.68676045  0.39411598    -0.35600
O1036       O  0.47623129  0.70960914  0.40752919    -0.39800
C1037       C  0.17643617  0.56471859  0.43297351    -0.13500
C1038       C  0.15151420  0.56267465  0.41680382     0.16800
C1039       C  0.12060157  0.56066451  0.42544064     0.03100
C1040       C  0.11535087  0.56025128  0.44981276    -0.12000
C1041       C  0.14059516  0.56135561  0.46609532    -0.03100
C1042       C  0.17126995  0.56403782  0.45740916     0.02400
C1043       C  0.15937302  0.56072461  0.39147178     0.09200
N1044       N  0.09479021  0.55771527  0.40987704     0.65600
H1045       H  0.09165853  0.55832038  0.45589468     0.18500
N1046       N  0.19788822  0.56512607  0.47292592     0.76000
H1047       H  0.20017472  0.56617023  0.42659837     0.10000
C1048       C  0.14759335  0.56901475  0.37326602     0.03700
C1049       C  0.15684809  0.56664700  0.34979568    -0.05000
C1050       C  0.17828289  0.55629547  0.34404752    -0.23400
C1051       C  0.18915675  0.54778481  0.36244777     0.12900
C1052       C  0.17940363  0.55005354  0.38563300    -0.12600
N1053       N  0.12781297  0.58029425  0.37844152     0.64600
H1054       H  0.14831330  0.57339824  0.33608150     0.12500
N1055       N  0.21007287  0.53672892  0.35817991     0.61300
H1056       H  0.18813400  0.54342626  0.39950441     0.08600
O1057       O  0.20833190  0.57652757  0.47826397    -0.40200
O1058       O  0.21431369  0.55487242  0.47761235    -0.39400
O1059       O  0.09363433  0.54641467  0.40003193    -0.39400
O1060       O  0.07028615  0.56504325  0.41005050    -0.37100
O1061       O  0.23951667  0.53882985  0.35659888    -0.38000
O1062       O  0.20079438  0.52511260  0.36322193    -0.34100
O1063       O  0.14003440  0.59064008  0.38727416    -0.35600
O1064       O  0.10014231  0.58093772  0.36989314    -0.39800
C1065       C  0.14185501  0.49913232  0.28548648    -0.13500
C1066       C  0.11601486  0.49945961  0.26974720     0.16800
C1067       C  0.11374734  0.51011021  0.25356920     0.03100
C1068       C  0.13673582  0.52020346  0.25361495    -0.12000
C1069       C  0.16249014  0.51997092  0.26952205    -0.03100
C1070       C  0.16514029  0.50911568  0.28532220     0.02400
C1071       C  0.09160135  0.48870947  0.27093612     0.09200
N1072       N  0.08828467  0.51084672  0.23690860     0.65600
H1073       H  0.13408366  0.52837263  0.24135770     0.18500
N1074       N  0.18999337  0.50848007  0.30246544     0.76000
H1075       H  0.14364003  0.49124733  0.29834675     0.10000
C1076       C  0.10062341  0.47513097  0.27038615     0.03700
C1077       C  0.07777837  0.46518429  0.27302545    -0.05000
C1078       C  0.04536312  0.46831998  0.27576337    -0.23400
C1079       C  0.03613893  0.48190165  0.27625562     0.12900
C1080       C  0.05925011  0.49195593  0.27406775    -0.12600
N1081       N  0.13283388  0.47120932  0.26618683     0.64600
H1082       H  0.08549668  0.45489778  0.27194695     0.12500
N1083       N  0.00373147  0.48567637  0.27983824     0.61300
H1084       H  0.05198475  0.50226956  0.27530370     0.08600
O1085       O  0.21660038  0.50359615  0.29679517    -0.40200
O1086       O  0.18323818  0.50983544  0.32397559    -0.39400
O1087       O  0.06630486  0.51931200  0.23985094    -0.39400
O1088       O  0.09110553  0.50509481  0.21722678    -0.37100
O1089       O  0.50336556  0.48909955  0.27074863    -0.38000
O1090       O  0.99302867  0.48655511  0.30053573    -0.34100
O1091       O  0.14844348  0.46540833  0.28225244    -0.35600
O1092       O  0.14337630  0.47116855  0.24539207    -0.39800
C1093       C  0.25449701  0.61201647  0.29922013    -0.13500
C1094       C  0.28277819  0.61459510  0.28709795     0.16800
C1095       C  0.29968485  0.60383032  0.27683972     0.03100
C1096       C  0.28769724  0.59080965  0.27827532    -0.12000
C1097       C  0.25861590  0.58838379  0.28935123    -0.03100
C1098       C  0.24228837  0.59904981  0.30032715     0.02400
C1099       C  0.29504940  0.62846886  0.28617000     0.09200
N1100       N  0.32778919  0.60611403  0.26339057     0.65600
H1101       H  0.29995844  0.58277533  0.26931555     0.18500
N1102       N  0.21330579  0.59681938  0.31277070     0.76000
H1103       H  0.24189058  0.62007253  0.30781745     0.10000
C1104       C  0.27687804  0.63912879  0.27673848     0.03700
C1105       C  0.28969156  0.65205242  0.27574820    -0.05000
C1106       C  0.32060464  0.65445301  0.28386245    -0.23400
C1107       C  0.33808423  0.64391614  0.29435322     0.12900
C1108       C  0.32528258  0.63107835  0.29537162    -0.12600
N1109       N  0.24622046  0.63681341  0.26674113     0.64600
H1110       H  0.27627795  0.65997723  0.26743774     0.12500
N1111       N  0.36886770  0.64615603  0.30428849     0.61300
H1112       H  0.33895396  0.62313508  0.30338920     0.08600
O1113       O  0.18747570  0.60133337  0.30461859    -0.40200
O1114       O  0.21423711  0.59230903  0.33352676    -0.39400
O1115       O  0.35404552  0.60139271  0.27033810    -0.39400
O1116       O  0.32551405  0.61095428  0.24292050    -0.37100
O1117       O  0.39306334  0.64093550  0.29486790    -0.38000
O1118       O  0.37126934  0.65151167  0.32434688    -0.34100
O1119       O  0.22177712  0.64138604  0.27681258    -0.35600
O1120       O  0.24396222  0.63196887  0.24627310    -0.39800
C1121       C  0.12778229  0.67927061  0.87993776    -0.13500
C1122       C  0.15700307  0.68448644  0.88737073     0.16800
C1123       C  0.17804915  0.68959481  0.87026076     0.03100
C1124       C  0.16934551  0.68969336  0.84632482    -0.12000
C1125       C  0.13955966  0.68499818  0.83912628    -0.03100
C1126       C  0.11892670  0.67953804  0.85612163     0.02400
C1127       C  0.16546507  0.68412646  0.91291287     0.09200
N1128       N  0.20756735  0.69543258  0.87706881     0.65600
H1129       H  0.18516839  0.69405178  0.83356457     0.18500
N1130       N  0.08927113  0.67380261  0.84933180     0.76000
H1131       H  0.11189905  0.67488563  0.89261371     0.10000
C1132       C  0.14524813  0.68968448  0.93024994     0.03700
C1133       C  0.15388326  0.68913471  0.95414351    -0.05000
C1134       C  0.18278096  0.68333055  0.96114198    -0.23400
C1135       C  0.20246025  0.67735734  0.94397399     0.12900
C1136       C  0.19366722  0.67774711  0.92012520    -0.12600
N1137       N  0.11682697  0.69666005  0.92376022     0.64600
H1138       H  0.13885018  0.69392393  0.96707727     0.12500
N1139       N  0.23103169  0.67052506  0.95060730     0.61300
H1140       H  0.20880566  0.67299524  0.90724058     0.08600
O1141       O  0.06365780  0.67970909  0.85451278    -0.40200
O1142       O  0.08855331  0.66183323  0.84234145    -0.39400
O1143       O  0.23336238  0.68989925  0.87117608    -0.39400
O1144       O  0.20787760  0.70704159  0.88576036    -0.37100
O1145       O  0.22969251  0.65860625  0.95777877    -0.38000
O1146       O  0.25762906  0.67556950  0.94580343    -0.34100
O1147       O  0.09016953  0.69200453  0.92952647    -0.35600
O1148       O  0.11854140  0.70843090  0.91592352    -0.39800
C1149       C  0.15189575  0.74298353  0.99773318    -0.13500
C1150       C  0.12781209  0.74626797  0.01390497     0.16800
C1151       C  0.12558686  0.73892475  0.03500371     0.03100
C1152       C  0.14649825  0.72824766  0.03923214    -0.12000
C1153       C  0.17009450  0.72473753  0.02282551    -0.03100
C1154       C  0.17297029  0.73233859  0.00202118     0.02400
C1155       C  0.10448024  0.75697613  0.00788390     0.09200
N1156       N  0.10222358  0.74218770  0.05234379     0.65600
H1157       H  0.14389952  0.72252806  0.05520591     0.18500
N1158       N  0.19510968  0.72864116  0.98407754     0.76000
H1159       H  0.15347004  0.74830325  0.98128351     0.10000
C1160       C  0.11476353  0.76981643  0.00153790     0.03700
C1161       C  0.09265072  0.77954254  0.99477532    -0.05000
C1162       C  0.05977172  0.77695169  0.99463998    -0.23400
C1163       C  0.04939548  0.76404683  0.00088972     0.12900
C1164       C  0.07174542  0.75416589  0.00726410    -0.12600
N1165       N  0.14754927  0.77337589  0.00303366     0.64600
H1166       H  0.10141377  0.78936995  0.99066359     0.12500
N1167       N  0.01646103  0.76070785  0.00044479     0.61300
H1168       H  0.06356523  0.74427339  0.01144575     0.08600
O1169       O  0.21955577  0.73562914  0.98085473    -0.40200
O1170       O  0.18744059  0.71999416  0.96892909    -0.39400
O1171       O  0.07938752  0.73434112  0.05591621    -0.39400
O1172       O  0.10734836  0.75158062  0.06667646    -0.37100
O1173       O  0.49852834  0.75676220  0.98410664    -0.38000
O1174       O  0.00150930  0.75943440  0.01954630    -0.34100
O1175       O  0.16271254  0.77607319  0.98450101    -0.35600
O1176       O  0.15956753  0.77609467  0.02284728    -0.39800
C1177       C  0.28909481  0.69997635  0.12190577    -0.13500
C1178       C  0.27985830  0.69030581  0.13836445     0.16800
C1179       C  0.25440723  0.68177410  0.13267673     0.03100
C1180       C  0.23923516  0.68283522  0.11061921    -0.12000
C1181       C  0.24879215  0.69237986  0.09388876    -0.03100
C1182       C  0.27388624  0.70110013  0.09991952     0.02400
C1183       C  0.29617032  0.68987329  0.16172953     0.09200
N1184       N  0.24310355  0.67221361  0.14931035     0.65600
H1185       H  0.22022662  0.67602378  0.10648059     0.18500
N1186       N  0.28367088  0.71144248  0.08423548     0.76000
H1187       H  0.30810895  0.70675714  0.12622321     0.10000
C1188       C  0.31806432  0.67970379  0.16784038     0.03700
C1189       C  0.33405949  0.68013129  0.18967725    -0.05000
C1190       C  0.32863453  0.69058446  0.20582160    -0.23400
C1191       C  0.30656151  0.70074793  0.19951406     0.12900
C1192       C  0.29079220  0.70031127  0.17770652    -0.12600
N1193       N  0.32498373  0.66906854  0.15181210     0.64600
H1194       H  0.35053292  0.67219066  0.19406608     0.12500
N1195       N  0.30036988  0.71183218  0.21474673     0.61300
H1196       H  0.27434076  0.70824007  0.17314882     0.08600
O1197       O  0.30988716  0.71041162  0.07364323    -0.40200
O1198       O  0.26917671  0.72251788  0.08435928    -0.39400
O1199       O  0.22375786  0.67590053  0.16500354    -0.39400
O1200       O  0.24674443  0.65990432  0.14521460    -0.37100
O1201       O  0.31634292  0.72237724  0.21249937    -0.38000
O1202       O  0.27524083  0.71207244  0.22681641    -0.34100
O1203       O  0.34510202  0.67085507  0.13569573    -0.35600
O1204       O  0.31618295  0.65735403  0.15661923    -0.39800
C1205       C  0.41897156  0.56848102  0.93273595    -0.13500
C1206       C  0.40245646  0.56044202  0.91655632     0.16800
C1207       C  0.37794953  0.55219066  0.92491071     0.03100
C1208       C  0.37053726  0.55208830  0.94899643    -0.12000
C1209       C  0.38786633  0.55969226  0.96551856    -0.03100
C1210       C  0.41208292  0.56813681  0.95697108     0.02400
C1211       C  0.41362427  0.55971406  0.89167259     0.09200
N1212       N  0.36224560  0.54295844  0.90960787     0.65600
H1213       H  0.35207700  0.54543296  0.95484776     0.18500
N1214       N  0.43068087  0.57611894  0.97258203     0.76000
H1215       H  0.43802138  0.57476003  0.92659383     0.10000
C1216       C  0.39424943  0.56315152  0.87219821     0.03700
C1217       C  0.40605624  0.56177267  0.84912038    -0.05000
C1218       C  0.43711474  0.55705798  0.84494556    -0.23400
C1219       C  0.45638039  0.55370810  0.86464193     0.12900
C1220       C  0.44452399  0.55504906  0.88754209    -0.12600
N1221       N  0.36296836  0.56845597  0.87551355     0.64600
H1222       H  0.39086293  0.56442532  0.83448227     0.12500
N1223       N  0.96755146  0.53523031  0.85867867     0.61300
H1224       H  0.45955859  0.55232279  0.90225239     0.08600
O1225       O  0.42391355  0.58833298  0.97515888    -0.40200
O1226       O  0.45718949  0.57176046  0.97973600    -0.39400
O1227       O  0.37742864  0.53301657  0.90169264    -0.39400
O1228       O  0.33233669  0.54315927  0.90805649    -0.37100
O1229       O  0.99686629  0.53504630  0.86336507    -0.38000
O1230       O  0.95378062  0.52450227  0.85317481    -0.34100
O1231       O  0.35960140  0.58032229  0.88266314    -0.35600
O1232       O  0.33945672  0.56246192  0.86671949    -0.39800
C1233       C  0.29996139  0.54136616  0.13110439    -0.13500
C1234       C  0.30407545  0.55256826  0.14563739     0.16800
C1235       C  0.32573227  0.56248711  0.13866528     0.03100
C1236       C  0.34231308  0.56124264  0.11725052    -0.12000
C1237       C  0.33764064  0.55020458  0.10225058    -0.03100
C1238       C  0.31657252  0.54005841  0.10972415     0.02400
C1239       C  0.28748384  0.55317648  0.16885444     0.09200
N1240       N  0.33028031  0.57414537  0.15277658     0.65600
H1241       H  0.35781826  0.56923546  0.11192212     0.18500
N1242       N  0.31242204  0.52814776  0.09617090     0.76000
H1243       H  0.28416364  0.53349869  0.13656715     0.10000
C1244       C  0.25512639  0.55671643  0.17080470     0.03700
C1245       C  0.23993239  0.55646049  0.19292293    -0.05000
C1246       C  0.25640166  0.55257461  0.21348676    -0.23400
C1247       C  0.28904064  0.54905229  0.21129890     0.12900
C1248       C  0.30408350  0.54943290  0.18923390    -0.12600
N1249       N  0.23743804  0.56070603  0.15045869     0.64600
H1250       H  0.21516753  0.55926416  0.19393588     0.12500
N1251       N  0.30761104  0.54516679  0.23129644     0.61300
H1252       H  0.32884193  0.54662928  0.18797025     0.08600
O1253       O  0.28631774  0.52603779  0.08588741    -0.40200
O1254       O  0.33268249  0.51884013  0.09771664    -0.39400
O1255       O  0.35556964  0.57544576  0.16450775    -0.39400
O1256       O  0.31172685  0.58400678  0.15039366    -0.37100
O1257       O  0.31153281  0.53291688  0.23579236    -0.38000
O1258       O  0.32477685  0.55369675  0.24152187    -0.34100
O1259       O  0.21753208  0.55281455  0.14146608    -0.35600
O1260       O  0.23832619  0.57269467  0.14362761    -0.39800
C1261       C  0.29011654  0.60592171  0.05150100    -0.13500
C1262       C  0.27890880  0.61048156  0.02966955     0.16800
C1263       C  0.28074847  0.60210487  0.00978286     0.03100
C1264       C  0.29480017  0.58942762  0.01178706    -0.12000
C1265       C  0.30750368  0.58516737  0.03338490    -0.03100
C1266       C  0.30466805  0.59339917  0.05343545     0.02400
C1267       C  0.26735762  0.62436106  0.02793813     0.09200
N1268       N  0.26938458  0.60653306  0.98735730     0.65600
H1269       H  0.29743376  0.58327277  0.99628014     0.18500
N1270       N  0.31741765  0.58933905  0.07570418     0.76000
H1271       H  0.28877854  0.61231735  0.06679199     0.10000
C1272       C  0.23904906  0.62825494  0.03900312     0.03700
C1273       C  0.23005216  0.64167947  0.03913621    -0.05000
C1274       C  0.24897514  0.65151126  0.02839434    -0.23400
C1275       C  0.27773525  0.64756949  0.01755705     0.12900
C1276       C  0.28655564  0.63402947  0.01727399    -0.12600
N1277       N  0.21903814  0.61863455  0.05004531     0.64600
H1278       H  0.20804808  0.64433896  0.04767996     0.12500
N1279       N  0.29842433  0.65710908  0.00702477     0.61300
H1280       H  0.30874341  0.63109847  0.00928428     0.08600
O1281       O  0.29927822  0.58426702  0.09088497    -0.40200
O1282       O  0.34471240  0.59319634  0.08180470    -0.39400
O1283       O  0.28876366  0.61067139  0.97213118    -0.39400
O1284       O  0.24082968  0.60454222  0.98162431    -0.37100
O1285       O  0.31964134  0.66258193  0.01939307    -0.38000
O1286       O  0.29920380  0.65825734  0.98489451    -0.34100
O1287       O  0.21788517  0.61800080  0.07223432    -0.35600
O1288       O  0.19887871  0.61239060  0.03785694    -0.39800
C1289       C  0.39367743  0.17104932  0.81842634    -0.13500
C1290       C  0.42509408  0.17330698  0.82541379     0.16800
C1291       C  0.44882003  0.17446837  0.80792121     0.03100
C1292       C  0.44026916  0.17430583  0.78391403    -0.12000
C1293       C  0.40846010  0.17268177  0.77700288    -0.03100
C1294       C  0.38528479  0.17056150  0.79459824     0.02400
C1295       C  0.43164561  0.17514222  0.85101904     0.09200
N1296       N  0.48165220  0.17547957  0.81420547     0.65600
H1297       H  0.45839684  0.17571382  0.77072493     0.18500
N1298       N  0.35300443  0.16777988  0.78858386     0.76000
H1299       H  0.37536632  0.16990442  0.83157828     0.10000
C1300       C  0.44343553  0.18730596  0.85994528     0.03700
C1301       C  0.44748908  0.18895317  0.88429741    -0.05000
C1302       C  0.43899283  0.17887947  0.90036711    -0.23400
C1303       C  0.42656889  0.16681218  0.89141342     0.12900
C1304       C  0.42318757  0.16502913  0.86696609    -0.12600
N1305       N  0.44946034  0.19840378  0.84471789     0.64600
H1306       H  0.45655796  0.19836737  0.89068988     0.12500
N1307       N  0.41793535  0.15614178  0.90677002     0.61300
H1308       H  0.41371232  0.15572489  0.86038830     0.08600
O1309       O  0.34498945  0.15593238  0.78395947    -0.40200
O1310       O  0.33182494  0.17653128  0.79208052    -0.39400
O1311       O  0.49548174  0.16560498  0.82362196    -0.39400
O1312       O  0.49805645  0.18495977  0.80620853    -0.37100
O1313       O  0.38924121  0.15472439  0.91257012    -0.38000
O1314       O  0.43765801  0.14690395  0.91103348    -0.34100
O1315       O  0.89730152  0.20464286  0.84144672    -0.35600
O1316       O  0.47606043  0.20414134  0.84543850    -0.39800
C1317       C  0.15220608  0.06488620  0.76850371    -0.13500
C1318       C  0.17485661  0.06145080  0.78576021     0.16800
C1319       C  0.20456309  0.05641588  0.77854101     0.03100
C1320       C  0.21037797  0.05411314  0.75461117    -0.12000
C1321       C  0.18721578  0.05684744  0.73729139    -0.03100
C1322       C  0.15827792  0.06280829  0.74441038     0.02400
C1323       C  0.16519106  0.06099367  0.81091178     0.09200
N1324       N  0.22839161  0.05271791  0.79534253     0.65600
H1325       H  0.23304134  0.04985173  0.74968258     0.18500
N1326       N  0.13419994  0.06621352  0.72764805     0.76000
H1327       H  0.12929817  0.06874012  0.77383311     0.10000
C1328       C  0.17946780  0.06884752  0.82865654     0.03700
C1329       C  0.17067788  0.06707697  0.85237376    -0.05000
C1330       C  0.14727093  0.05777176  0.85870026    -0.23400
C1331       C  0.13318053  0.04994956  0.84074005     0.12900
C1332       C  0.14222037  0.05162681  0.81726184    -0.12600
N1333       N  0.20166061  0.07907637  0.82280854     0.64600
H1334       H  0.18134937  0.07331997  0.86571854     0.12500
N1335       N  0.11032531  0.03989404  0.84601965     0.61300
H1336       H  0.13158970  0.04537090  0.80389129     0.08600
O1337       O  0.13144766  0.07815436  0.72076400    -0.40200
O1338       O  0.11232364  0.05800927  0.72326912    -0.39400
O1339       O  0.22667204  0.04154366  0.80553310    -0.39400
O1340       O  0.25419002  0.05906688  0.79593060    -0.37100
O1341       O  0.08126475  0.04217041  0.84214385    -0.38000
O1342       O  0.11956314  0.02807452  0.84986401    -0.34100
O1343       O  0.19185960  0.08958437  0.81279873    -0.35600
O1344       O  0.22909167  0.07886731  0.83182650    -0.39800
C1345       C  0.13253022  0.99547700  0.67035704    -0.13500
C1346       C  0.10043801  0.99942440  0.67022180     0.16800
C1347       C  0.09292315  0.01309539  0.66777463     0.03100
C1348       C  0.11734992  0.02246951  0.66540420    -0.12000
C1349       C  0.14961783  0.01863484  0.66636280    -0.03100
C1350       C  0.15701813  0.00489654  0.66867836     0.02400
C1351       C  0.07552828  0.98913447  0.67398379     0.09200
N1352       N  0.06085179  0.01777540  0.66968224     0.65600
H1353       H  0.11088980  0.03290903  0.66416919     0.18500
N1354       N  0.18917242  0.00028935  0.66962762     0.76000
H1355       H  0.13862175  0.98502516  0.67224976     0.10000
C1356       C  0.05159763  0.98644851  0.65713336     0.03700
C1357       C  0.02969973  0.97613723  0.66117684    -0.05000
C1358       C  0.03197629  0.96807883  0.68137340    -0.23400
C1359       C  0.05531348  0.97106681  0.69847531     0.12900
C1360       C  0.07657210  0.98155523  0.69475111    -0.12600
N1361       N  0.05100835  0.99320742  0.63493553     0.64600
H1362       H  0.01253088  0.97375897  0.64764911     0.12500
N1363       N  0.05796263  0.96343762  0.71968243     0.61300
H1364       H  0.09446021  0.98361156  0.70793891     0.08600
O1365       O  0.20190699  0.99552218  0.65133182    -0.40200
O1366       O  0.20231393  0.99847203  0.68938989    -0.39400
O1367       O  0.04712395  0.01736709  0.68941299    -0.39400
O1368       O  0.04891557  0.02474456  0.65334110    -0.37100
O1369       O  0.57968779  0.95436208  0.72035685    -0.38000
O1370       O  0.04335541  0.96726251  0.73788894    -0.34100
O1371       O  0.07250449  0.99079010  0.62004156    -0.35600
O1372       O  0.02614099  0.99929121  0.62844797    -0.39800
C1373       C  0.34303430  0.12034433  0.68637317    -0.13500
C1374       C  0.31375109  0.11765514  0.69680258     0.16800
C1375       C  0.29945693  0.12727988  0.71148468     0.03100
C1376       C  0.31408658  0.13968431  0.71482345    -0.12000
C1377       C  0.34321287  0.14258705  0.70393191    -0.03100
C1378       C  0.35798560  0.13260150  0.68990948     0.02400
C1379       C  0.29823006  0.10485115  0.69138995     0.09200
N1380       N  0.26972551  0.12471632  0.72261791     0.65600
H1381       H  0.30251629  0.14705425  0.72579748     0.18500
N1382       N  0.38778402  0.13477867  0.67857520     0.76000
H1383       H  0.35419007  0.11292553  0.67525181     0.10000
C1384       C  0.28498174  0.10258160  0.66897891     0.03700
C1385       C  0.27105755  0.09028166  0.66386159    -0.05000
C1386       C  0.27062421  0.08001838  0.68069634    -0.23400
C1387       C  0.28476559  0.08216247  0.70295452     0.12900
C1388       C  0.29821966  0.09460391  0.70820731    -0.12600
N1389       N  0.28479857  0.11283613  0.65146315     0.64600
H1390       H  0.25998549  0.08883239  0.64685907     0.12500
N1391       N  0.28404108  0.07211825  0.72082751     0.61300
H1392       H  0.30870774  0.09626437  0.72534095     0.08600
O1393       O  0.38833851  0.13808771  0.65712658    -0.40200
O1394       O  0.41308073  0.13093061  0.68851536    -0.39400
O1395       O  0.26906930  0.12178199  0.74423269    -0.39400
O1396       O  0.24418261  0.12755545  0.71202044    -0.37100
O1397       O  0.30545776  0.06324590  0.72135697    -0.38000
O1398       O  0.26610858  0.07364349  0.73841589    -0.34100
O1399       O  0.30469955  0.11244637  0.63488760    -0.35600
O1400       O  0.26230426  0.12121957  0.65081393    -0.39800
C1401       C  0.43105090  0.04345582  0.27813520    -0.13500
C1402       C  0.41866086  0.05565524  0.28618114     0.16800
C1403       C  0.41455510  0.06625149  0.27010231     0.03100
C1404       C  0.42354743  0.06461824  0.24644846    -0.12000
C1405       C  0.43673812  0.05250098  0.23842696    -0.03100
C1406       C  0.43986960  0.04176413  0.25449371     0.02400
C1407       C  0.40944800  0.05689897  0.31132439     0.09200
N1408       N  0.40227028  0.07886980  0.27770059     0.65600
H1409       H  0.42108129  0.07297450  0.23453734     0.18500
N1410       N  0.45081890  0.02891536  0.24692741     0.76000
H1411       H  0.43355864  0.03517375  0.29021197     0.10000
C1412       C  0.37765931  0.05543411  0.31827210     0.03700
C1413       C  0.36985568  0.05543933  0.34222534    -0.05000
C1414       C  0.39333303  0.05659475  0.35988445    -0.23400
C1415       C  0.42519029  0.05849679  0.35279637     0.12900
C1416       C  0.43293350  0.05862089  0.32866922    -0.12600
N1417       N  0.35323698  0.05304419  0.30126377     0.64600
H1418       H  0.34525630  0.05402991  0.34692776     0.12500
N1419       N  0.45016519  0.05974503  0.36971781     0.61300
H1420       H  0.45745293  0.05970497  0.32346972     0.08600
O1421       O  0.43108304  0.02051813  0.23924306    -0.40200
O1422       O  0.47865002  0.02513827  0.25201429    -0.39400
O1423       O  0.42127145  0.08798893  0.28359649    -0.39400
O1424       O  0.37350182  0.08175572  0.27388808    -0.37100
O1425       O  0.46520866  0.04946064  0.37633139    -0.38000
O1426       O  0.46090122  0.07116358  0.37460750    -0.34100
O1427       O  0.34879090  0.04130588  0.29387075    -0.35600
O1428       O  0.33227879  0.06187152  0.29759059    -0.39800
C1429       C  0.29285094  0.03527602  0.52061954    -0.13500
C1430       C  0.29890892  0.04518505  0.53747665     0.16800
C1431       C  0.32140778  0.05514492  0.53236692     0.03100
C1432       C  0.33698555  0.05522212  0.51047018    -0.12000
C1433       C  0.33030511  0.04553166  0.49323612    -0.03100
C1434       C  0.30825788  0.03536088  0.49867976     0.02400
C1435       C  0.28198506  0.04480485  0.56047028     0.09200
N1436       N  0.32846373  0.06533827  0.54918010     0.65600
H1437       H  0.35348566  0.06314763  0.50666241     0.18500
N1438       N  0.30184865  0.02482094  0.48236491     0.76000
H1439       H  0.27609537  0.02745536  0.52450819     0.10000
C1440       C  0.25423035  0.05238920  0.56439469     0.03700
C1441       C  0.23911619  0.05202823  0.58643837    -0.05000
C1442       C  0.25087633  0.04400121  0.60494351    -0.23400
C1443       C  0.27825377  0.03601337  0.60054280     0.12900
C1444       C  0.29351135  0.03656080  0.57855172    -0.12600
N1445       N  0.24080078  0.06036350  0.54598545     0.64600
H1446       H  0.21822279  0.05816345  0.58905149     0.12500
N1447       N  0.29098814  0.02723318  0.61808150     0.61300
H1448       H  0.31449711  0.03052308  0.57558607     0.08600
O1449       O  0.27529344  0.02437353  0.47204071    -0.40200
O1450       O  0.32022118  0.01482081  0.48152132    -0.39400
O1451       O  0.35296759  0.06426139  0.56189795    -0.39400
O1452       O  0.31402916  0.07640759  0.54808731    -0.37100
O1453       O  0.28206362  0.01522278  0.61868352    -0.38000
O1454       O  0.31504229  0.03071798  0.62983401    -0.34100
O1455       O  0.22098441  0.05523582  0.53198283    -0.35600
O1456       O  0.24413934  0.07288118  0.54638837    -0.39800
C1457       C  0.13299738  0.18800590  0.32186814    -0.13500
C1458       C  0.16381600  0.18395808  0.32774641     0.16800
C1459       C  0.18434791  0.17951860  0.30976371     0.03100
C1460       C  0.17376120  0.17916282  0.28622281    -0.12000
C1461       C  0.14271952  0.18322358  0.28012784    -0.03100
C1462       C  0.12227960  0.18771121  0.29848344     0.02400
C1463       C  0.17367815  0.18434740  0.35288243     0.09200
N1464       N  0.21603816  0.17534355  0.31514685     0.65600
H1465       H  0.18998313  0.17579565  0.27273482     0.18500
N1466       N  0.09049767  0.19211228  0.29388687     0.76000
H1467       H  0.11712446  0.19144407  0.33555064     0.10000
C1468       C  0.18795055  0.19576607  0.36262046     0.03700
C1469       C  0.19617106  0.19600728  0.38657817    -0.05000
C1470       C  0.18973892  0.18509866  0.40148366    -0.23400
C1471       C  0.17443166  0.17381586  0.39177160     0.12900
C1472       C  0.16675264  0.17350393  0.36763320    -0.12600
N1473       N  0.19351302  0.20733652  0.34850938     0.64600
H1474       H  0.20738218  0.20485466  0.39357053     0.12500
N1475       N  0.16719455  0.16245675  0.40594967     0.61300
H1476       H  0.15525429  0.16478939  0.36038753     0.08600
O1477       O  0.08463028  0.20444965  0.29201563    -0.40200
O1478       O  0.06784117  0.18403891  0.29632580    -0.39400
O1479       O  0.22212394  0.16307337  0.31778027    -0.39400
O1480       O  0.23856121  0.18350687  0.31298318    -0.37100
O1481       O  0.13931993  0.16096332  0.41358426    -0.38000
O1482       O  0.18668692  0.15284921  0.40710695    -0.34100
O1483       O  0.17233903  0.21628083  0.34704793    -0.35600
O1484       O  0.22121712  0.20976767  0.34133339    -0.39800
C1485       C  0.05514312  0.24169183  0.48120464    -0.13500
C1486       C  0.08615071  0.24557898  0.48763584     0.16800
C1487       C  0.09186455  0.25911930  0.49285882     0.03100
C1488       C  0.06738508  0.26847083  0.49078583    -0.12000
C1489       C  0.03654358  0.26469023  0.48417542    -0.03100
C1490       C  0.03024116  0.25111050  0.47985800     0.02400
C1491       C  0.11277194  0.23570670  0.48700374     0.09200
N1492       N  0.12228126  0.26355206  0.50083669     0.65600
H1493       H  0.07250018  0.27877087  0.49490537     0.18500
N1494       N  0.50036499  0.24988656  0.47480754     0.76000
H1495       H  0.05041164  0.23144616  0.47664331     0.10000
C1496       C  0.11069141  0.22317242  0.49816069     0.03700
C1497       C  0.13524615  0.21378648  0.49550786    -0.05000
C1498       C  0.16262296  0.21669361  0.48226788    -0.23400
C1499       C  0.16529540  0.22948826  0.47202072     0.12900
C1500       C  0.14026191  0.23870910  0.47404691    -0.12600
N1501       N  0.08402860  0.21986462  0.51254227     0.64600
H1502       H  0.13278574  0.20418893  0.50389431     0.12500
N1503       N  0.19269372  0.23319863  0.45881139     0.61300
H1504       H  0.14206642  0.24810554  0.46497456     0.08600
O1505       O  0.48583022  0.24489610  0.49208080    -0.40200
O1506       O  0.48866792  0.24892385  0.45438462    -0.39400
O1507       O  0.13793418  0.27160800  0.48838377    -0.39400
O1508       O  0.13018924  0.26171548  0.52205589    -0.37100
O1509       O  0.19278201  0.23172147  0.43672763    -0.38000
O1510       O  0.21391183  0.24018713  0.46847710    -0.34100
O1511       O  0.06600769  0.21040761  0.50657807    -0.35600
O1512       O  0.08154716  0.22488266  0.53286631    -0.39800
C1513       C  0.30396134  0.19460706  0.56129758    -0.13500
C1514       C  0.29915085  0.18358630  0.57604475     0.16800
C1515       C  0.27715703  0.17374443  0.56910635     0.03100
C1516       C  0.26040414  0.17510917  0.54773319    -0.12000
C1517       C  0.26513954  0.18618525  0.53287951    -0.03100
C1518       C  0.28742865  0.19597469  0.53994069     0.02400
C1519       C  0.31572234  0.18325799  0.59927079     0.09200
N1520       N  0.27081749  0.16250699  0.58384247     0.65600
H1521       H  0.24384723  0.16741944  0.54271340     0.18500
N1522       N  0.29320380  0.20757026  0.52594987     0.76000
H1523       H  0.32047948  0.20228027  0.56651935     0.10000
C1524       C  0.34071652  0.17423282  0.60433256     0.03700
C1525       C  0.35630756  0.17475706  0.62630048    -0.05000
C1526       C  0.34756085  0.18423148  0.64347851    -0.23400
C1527       C  0.32274468  0.19336133  0.63811487     0.12900
C1528       C  0.30720065  0.19278389  0.61626354    -0.12600
N1529       N  0.35112063  0.16471724  0.58717610     0.64600
H1530       H  0.37494403  0.16759398  0.63003615     0.12500
N1531       N  0.31336269  0.20350278  0.65446616     0.61300
H1532       H  0.28842239  0.19988318  0.61247638     0.08600
O1533       O  0.31815741  0.20819380  0.51373811    -0.40200
O1534       O  0.27696860  0.21802666  0.52940646    -0.39400
O1535       O  0.25020453  0.16355734  0.59984795    -0.39400
O1536       O  0.28005312  0.15103690  0.57751281    -0.37100
O1537       O  0.32748459  0.21458761  0.65443137    -0.38000
O1538       O  0.28763752  0.20233374  0.66561958    -0.34100
O1539       O  0.36836200  0.16852294  0.57034082    -0.35600
O1540       O  0.34875200  0.15238889  0.59144458    -0.39800
C1541       C  0.29138715  0.10663886  0.42682639    -0.13500
C1542       C  0.31365800  0.11610253  0.43446860     0.16800
C1543       C  0.34486807  0.11200833  0.43940464     0.03100
C1544       C  0.35341740  0.09860371  0.43691797    -0.12000
C1545       C  0.33116925  0.08888052  0.42985638    -0.03100
C1546       C  0.29979428  0.09307038  0.42465774     0.02400
C1547       C  0.30317071  0.12984250  0.44008826     0.09200
N1548       N  0.36806920  0.12135086  0.44742980     0.65600
H1549       H  0.37766080  0.09585359  0.44095337     0.18500
N1550       N  0.27583997  0.08369663  0.41823920     0.76000
H1551       H  0.26715336  0.10969900  0.42351182     0.10000
C1552       C  0.29484784  0.13908220  0.42238132     0.03700
C1553       C  0.28304460  0.15172028  0.42864524    -0.05000
C1554       C  0.27893768  0.15511851  0.45241361    -0.23400
C1555       C  0.28795799  0.14598997  0.47010901     0.12900
C1556       C  0.30034430  0.13350092  0.46385280    -0.12600
N1557       N  0.29729684  0.13560650  0.39804192     0.64600
H1558       H  0.27539844  0.15855027  0.41501262     0.12500
N1559       N  0.28341343  0.14908518  0.49448275     0.61300
H1560       H  0.30658894  0.12645277  0.47751928     0.08600
O1561       O  0.26700729  0.08285842  0.39702896    -0.40200
O1562       O  0.25951802  0.07823907  0.43413398    -0.39400
O1563       O  0.37553666  0.12169413  0.46897305    -0.39400
O1564       O  0.38478095  0.12752502  0.43262411    -0.37100
O1565       O  0.25851584  0.14531128  0.50479747    -0.38000
O1566       O  0.30618346  0.15367031  0.50644569    -0.34100
O1567       O  0.27289017  0.13186073  0.38697027    -0.35600
O1568       O  0.32207645  0.13855693  0.38677932    -0.39800
C1569       C  0.29553899  0.31747012  0.08206675    -0.13500
C1570       C  0.28718312  0.30786596  0.09902204     0.16800
C1571       C  0.27095628  0.29631829  0.09160349     0.03100
C1572       C  0.26214210  0.29481239  0.06796706    -0.12000
C1573       C  0.26941851  0.30457830  0.05105384    -0.03100
C1574       C  0.28687248  0.31590371  0.05822305     0.02400
C1575       C  0.29407783  0.31013521  0.12452624     0.09200
N1576       N  0.26339286  0.28593251  0.10789908     0.65600
H1577       H  0.24927360  0.28596409  0.06289086     0.18500
N1578       N  0.29406159  0.32633545  0.04194799     0.76000
H1579       H  0.30768728  0.32642388  0.08746725     0.10000
C1580       C  0.32537394  0.31145642  0.13299609     0.03700
C1581       C  0.33116097  0.31185209  0.15734384    -0.05000
C1582       C  0.30614885  0.31124103  0.17373700    -0.23400
C1583       C  0.27465904  0.31098760  0.16520434     0.12900
C1584       C  0.26890187  0.31034708  0.14080544    -0.12600
N1585       N  0.35170349  0.31173624  0.11717219     0.64600
H1586       H  0.35544933  0.31225816  0.16346091     0.12500
N1587       N  0.24834336  0.31055229  0.18100968     0.61300
H1588       H  0.24472558  0.30968396  0.13456903     0.08600
O1589       O  0.27406684  0.33556391  0.03836100    -0.40200
O1590       O  0.32198670  0.32750519  0.03423408    -0.39400
O1591       O  0.23492265  0.28423635  0.11405333    -0.39400
O1592       O  0.28384129  0.27703303  0.11250425    -0.37100
O1593       O  0.23371527  0.32121338  0.18606511    -0.38000
O1594       O  0.23635286  0.29944388  0.18640125    -0.34100
O1595       O  0.36435406  0.32276980  0.11214796    -0.35600
O1596       O  0.36586563  0.30099201  0.11195261    -0.39800
C1597       C  0.34229525  0.22189292  0.97016961    -0.13500
C1598       C  0.35159903  0.23497329  0.97535712     0.16800
C1599       C  0.38399437  0.23762485  0.97963742     0.03100
C1600       C  0.40646234  0.22720711  0.97857892    -0.12000
C1601       C  0.39717569  0.21403790  0.97358678    -0.03100
C1602       C  0.36467212  0.21148257  0.96907158     0.02400
C1603       C  0.32710773  0.24570713  0.97579690     0.09200
N1604       N  0.39429857  0.25073352  0.98596506     0.65600
H1605       H  0.43107985  0.22938198  0.98218333     0.18500
N1606       N  0.35413835  0.19853213  0.96201586     0.76000
H1607       H  0.31764549  0.21981003  0.96646416     0.10000
C1608       C  0.32597762  0.25566266  0.95828206     0.03700
C1609       C  0.30356141  0.26600943  0.95983383    -0.05000
C1610       C  0.28147653  0.26655034  0.97835149    -0.23400
C1611       C  0.28173724  0.25624818  0.99536168     0.12900
C1612       C  0.30449272  0.24594140  0.99394684    -0.12600
N1613       N  0.34679717  0.25519566  0.93842360     0.64600
H1614       H  0.30340976  0.27366872  0.94641407     0.12500
N1615       N  0.26051478  0.25653398  0.01496481     0.61300
H1616       H  0.30505991  0.23829589  0.00738574     0.08600
O1617       O  0.33893103  0.19139324  0.97635953    -0.40200
O1618       O  0.35460166  0.19538845  0.94047670    -0.39400
O1619       O  0.39113637  0.25466449  0.00696727    -0.39400
O1620       O  0.41229015  0.25707922  0.97225207    -0.37100
O1621       O  0.23733808  0.24860719  0.01549931    -0.38000
O1622       O  0.26816025  0.26283103  0.03338013    -0.34100
O1623       O  0.34208853  0.24664279  0.92245933    -0.35600
O1624       O  0.36509126  0.26487294  0.93443649    -0.39800
C1625       C  0.06328025  0.42819027  0.17177737    -0.13500
C1626       C  0.04289967  0.43313163  0.15407040     0.16800
C1627       C  0.52080957  0.43486561  0.16346922     0.03100
C1628       C  0.51320358  0.43502783  0.18738044    -0.12000
C1629       C  0.02476132  0.43418072  0.20221160    -0.03100
C1630       C  0.05450782  0.42868360  0.19569320     0.02400
C1631       C  0.05260067  0.43278385  0.12885900     0.09200
N1632       N  0.49735147  0.43919191  0.14684194     0.65600
H1633       H  0.48960296  0.43823913  0.19225538     0.18500
N1634       N  0.07620162  0.42364745  0.21298142     0.76000
H1635       H  0.08589782  0.42389020  0.16704646     0.10000
C1636       C  0.08039139  0.43915380  0.12114785     0.03700
C1637       C  0.08737677  0.43970056  0.09708257    -0.05000
C1638       C  0.06726809  0.43387464  0.08007656    -0.23400
C1639       C  0.04014196  0.42693045  0.08795811     0.12900
C1640       C  0.03304812  0.42648363  0.11212485    -0.12600
N1641       N  0.10134477  0.44552847  0.13744905     0.64600
H1642       H  0.10852196  0.44491594  0.09179718     0.12500
N1643       N  0.01973806  0.42010845  0.07185984     0.61300
H1644       H  0.01219907  0.42121639  0.11783298     0.08600
O1645       O  0.09842719  0.43097341  0.22031743    -0.40200
O1646       O  0.07663238  0.41131864  0.21763726    -0.39400
O1647       O  0.47452666  0.43158327  0.14178999    -0.39400
O1648       O  0.49596377  0.45134713  0.14101398    -0.37100
O1649       O  0.99303231  0.42510805  0.06668986    -0.38000
O1650       O  0.53170806  0.40663395  0.07244257    -0.34100
O1651       O  0.12782772  0.44018163  0.14217956    -0.35600
O1652       O  0.09615768  0.45748200  0.14346790    -0.39800
C1653       C  0.99779420  0.48490930  0.99867943    -0.13500
C1654       C  0.00267621  0.49345134  0.01795684     0.16800
C1655       C  0.02973361  0.49150942  0.03234116     0.03100
C1656       C  0.05081979  0.48094376  0.02755978    -0.12000
C1657       C  0.04493586  0.47190095  0.00912874    -0.03100
C1658       C  0.01858398  0.47420182  0.99418000     0.02400
C1659       C  0.48248616  0.50603497  0.02126488     0.09200
N1660       N  0.03465519  0.49939237  0.05307151     0.65600
H1661       H  0.07049966  0.47921337  0.03945325     0.18500
N1662       N  0.01269404  0.46581983  0.97426708     0.76000
H1663       H  0.48538593  0.48869268  0.98523098     0.10000
C1664       C  0.48873775  0.51983944  0.02203455     0.03700
C1665       C  0.46415071  0.52884997  0.02730608    -0.05000
C1666       C  0.43273638  0.52449026  0.03087159    -0.23400
C1667       C  0.42641269  0.51067945  0.02932364     0.12900
C1668       C  0.45126468  0.50161324  0.02488594    -0.12600
N1669       N  0.51925427  0.52495813  0.01581585     0.64600
H1670       H  0.46949464  0.53939007  0.02743653     0.12500
N1671       N  0.39501296  0.50564056  0.03221941     0.61300
H1672       H  0.44614014  0.49105662  0.02418345     0.08600
O1673       O  0.02581016  0.46843065  0.95485118    -0.40200
O1674       O  0.99010913  0.45759737  0.97483705    -0.39400
O1675       O  0.01533348  0.49855032  0.06996627    -0.39400
O1676       O  0.06096046  0.50510262  0.05628921    -0.37100
O1677       O  0.37825238  0.50327030  0.01424470    -0.38000
O1678       O  0.38667384  0.50108453  0.05196786    -0.34100
O1679       O  0.52804950  0.52448073  0.99458243    -0.35600
O1680       O  0.03342515  0.52926186  0.02972958    -0.39800
C1681       C  0.13898361  0.37862164  0.02936770    -0.13500
C1682       C  0.16560043  0.37628066  0.01511636     0.16800
C1683       C  0.18015156  0.38711355  0.00356651     0.03100
C1684       C  0.16708106  0.39995802  0.00555055    -0.12000
C1685       C  0.13926987  0.40209507  0.01853460    -0.03100
C1686       C  0.12562612  0.39141343  0.03101279     0.02400
C1687       C  0.17480894  0.36230729  0.00996417     0.09200
N1688       N  0.20745540  0.38513161  0.98904177     0.65600
H1689       H  0.17759904  0.40809095  0.99588281     0.18500
N1690       N  0.09772237  0.39335010  0.04492261     0.76000
H1691       H  0.12754120  0.37039882  0.03815746     0.10000
C1692       C  0.18388284  0.35335453  0.02796942     0.03700
C1693       C  0.18988187  0.33992180  0.02250546    -0.05000
C1694       C  0.18752642  0.33536232  0.99920843    -0.23400
C1695       C  0.17832551  0.34427289  0.98126572     0.12900
C1696       C  0.17158937  0.35759996  0.98678397    -0.12600
N1697       N  0.18897887  0.35793732  0.05153123     0.64600
H1698       H  0.19824937  0.33324939  0.03618167     0.12500
N1699       N  0.17588077  0.33990747  0.95734850     0.61300
H1700       H  0.16371788  0.36426904  0.97297287     0.08600
O1701       O  0.10039823  0.39590321  0.06661442    -0.40200
O1702       O  0.07098166  0.39015688  0.03663889    -0.39400
O1703       O  0.20447966  0.38538314  0.96691010    -0.39400
O1704       O  0.23479760  0.38588141  0.99807808    -0.37100
O1705       O  0.14991003  0.33531838  0.94982937    -0.38000
O1706       O  0.19764370  0.34267005  0.94293711    -0.34100
O1707       O  0.17075824  0.35414780  0.06779546    -0.35600
O1708       O  0.21466725  0.36368545  0.05671164    -0.39800
C1709       C  0.04397770  0.30445836  0.58526518    -0.13500
C1710       C  0.02056595  0.30249876  0.60257946     0.16800
C1711       C  0.49809563  0.29691327  0.59563500     0.03100
C1712       C  0.49052141  0.29571385  0.57171005    -0.12000
C1713       C  0.50960828  0.30144770  0.55409155    -0.03100
C1714       C  0.03676564  0.30327181  0.56113819     0.02400
C1715       C  0.02906474  0.30339441  0.62807753     0.09200
N1716       N  0.47836430  0.29049325  0.61260116     0.65600
H1717       H  0.46942371  0.29023182  0.56703040     0.18500
N1718       N  0.06164174  0.30488120  0.54431328     0.76000
H1719       H  0.06791281  0.30686765  0.59047863     0.10000
C1720       C  0.05374142  0.29553506  0.63768747     0.03700
C1721       C  0.06129069  0.29655392  0.66165611    -0.05000
C1722       C  0.04427636  0.30513193  0.67686378    -0.23400
C1723       C  0.01944080  0.31298874  0.66721083     0.12900
C1724       C  0.01234272  0.31217782  0.64300667    -0.12600
N1725       N  0.07044916  0.28596937  0.62358234     0.64600
H1726       H  0.08008035  0.29025633  0.66843021     0.12500
N1727       N  0.00127337  0.32191060  0.68155952     0.61300
H1728       H  0.99375345  0.31843406  0.63588081     0.08600
O1729       O  0.07921661  0.29505103  0.53915691    -0.40200
O1730       O  0.06941193  0.31646147  0.53780432    -0.39400
O1731       O  0.45123491  0.29526392  0.61709256    -0.39400
O1732       O  0.48557895  0.27893196  0.61977581    -0.37100
O1733       O  0.00864377  0.33410274  0.68246621    -0.38000
O1734       O  0.97472004  0.31822212  0.68940759    -0.34100
O1735       O  0.09947156  0.28769237  0.61907487    -0.35600
O1736       O  0.05789296  0.27481358  0.61924548    -0.39800
C1737       C  0.46516883  0.26136426  0.73865811    -0.13500
C1738       C  0.47964642  0.24877289  0.74053997     0.16800
C1739       C  0.00924324  0.24729675  0.73371324     0.03100
C1740       C  0.02852392  0.25847323  0.73759707    -0.12000
C1741       C  0.01631686  0.27018371  0.74794157    -0.03100
C1742       C  0.98411544  0.27028285  0.75527094     0.02400
C1743       C  0.46100928  0.23675576  0.73400573     0.09200
N1744       N  0.02312618  0.23562990  0.72334648     0.65600
H1745       H  0.05295957  0.25802697  0.73200594     0.18500
N1746       N  0.97031377  0.28164143  0.76670676     0.76000
H1747       H  0.44041068  0.26212571  0.73382717     0.10000
C1748       C  0.43237013  0.23353563  0.74543913     0.03700
C1749       C  0.41416433  0.22271557  0.73751334    -0.05000
C1750       C  0.42417390  0.21484599  0.71834689    -0.23400
C1751       C  0.45258098  0.21829957  0.70661659     0.12900
C1752       C  0.47060005  0.22915458  0.71448585    -0.12600
N1753       N  0.42222466  0.24078323  0.76580839     0.64600
H1754       H  0.39295541  0.22011678  0.74707352     0.12500
N1755       N  0.46315452  0.21110061  0.68630556     0.61300
H1756       H  0.49183118  0.23181601  0.70501872     0.08600
O1757       O  0.44904389  0.29046842  0.75257250    -0.40200
O1758       O  0.95317588  0.28965142  0.75503602    -0.39400
O1759       O  0.03284782  0.23602799  0.70233902    -0.39400
O1760       O  0.03120529  0.22596807  0.73636559    -0.37100
O1761       O  0.45219260  0.21412519  0.66627666    -0.38000
O1762       O  0.48716591  0.20353382  0.68778890    -0.34100
O1763       O  0.39790214  0.24818725  0.76466581    -0.35600
O1764       O  0.43422448  0.23805974  0.78564628    -0.39800
C1765       C  0.11839903  0.31192219  0.84967553    -0.13500
C1766       C  0.13275942  0.29987219  0.85697442     0.16800
C1767       C  0.12923606  0.28843418  0.84273138     0.03100
C1768       C  0.11285947  0.28928473  0.82122583    -0.12000
C1769       C  0.09913248  0.30136997  0.81356061    -0.03100
C1770       C  0.10146231  0.31271870  0.82825413     0.02400
C1771       C  0.15104335  0.29929272  0.87955279     0.09200
N1772       N  0.14340436  0.27598128  0.84937339     0.65600
H1773       H  0.11151516  0.28051104  0.81018985     0.18500
N1774       N  0.08832355  0.32528102  0.82111162     0.76000
H1775       H  0.12055196  0.32073008  0.86052649     0.10000
C1776       C  0.17912895  0.30666195  0.88284322     0.03700
C1777       C  0.19562894  0.30600797  0.90438937    -0.05000
C1778       C  0.18474982  0.29805849  0.92315859    -0.23400
C1779       C  0.15649865  0.29061848  0.91968997     0.12900
C1780       C  0.14012200  0.29128874  0.89808726    -0.12600
N1781       N  0.19167977  0.31462321  0.86421394     0.64600
H1782       H  0.21695614  0.31182989  0.90639545     0.12500
N1783       N  0.14385968  0.28232684  0.93784048     0.61300
H1784       H  0.11858121  0.28562952  0.89586818     0.08600
O1785       O  0.10581834  0.33381280  0.81129262    -0.40200
O1786       O  0.06098111  0.32865789  0.82805491    -0.39400
O1787       O  0.12612370  0.26666140  0.85690055    -0.39400
O1788       O  0.17190740  0.27355375  0.84395216    -0.37100
O1789       O  0.12162355  0.28671279  0.95061551    -0.38000
O1790       O  0.15022141  0.26998780  0.93789159    -0.34100
O1791       O  0.19060656  0.32719934  0.86569874    -0.35600
O1792       O  0.20844262  0.30918489  0.84845162    -0.39800
C1793       C  0.26855425  0.42730265  0.60841013    -0.13500
C1794       C  0.29094051  0.43173085  0.62504845     0.16800
C1795       C  0.32092222  0.43584780  0.61739578     0.03100
C1796       C  0.32818387  0.43564767  0.59343491    -0.12000
C1797       C  0.30595612  0.43136604  0.57638122    -0.03100
C1798       C  0.27589848  0.42697815  0.58420101     0.02400
C1799       C  0.28291470  0.43222894  0.65040918     0.09200
N1800       N  0.34401787  0.44065785  0.63378835     0.65600
H1801       H  0.35145191  0.43903433  0.58829512     0.18500
N1802       N  0.25268064  0.42210777  0.56799630     0.76000
H1803       H  0.24547354  0.42405205  0.61424124     0.10000
C1804       C  0.26340249  0.44245156  0.65937154     0.03700
C1805       C  0.25643772  0.44285382  0.68343209    -0.05000
C1806       C  0.26900234  0.43326884  0.69912735    -0.23400
C1807       C  0.28923005  0.42317266  0.69013327     0.12900
C1808       C  0.29599142  0.42273485  0.66590700    -0.12600
N1809       N  0.25139666  0.45278050  0.64434886     0.64600
H1810       H  0.24141129  0.45084687  0.68985287     0.12500
N1811       N  0.30223528  0.41304671  0.70510649     0.61300
H1812       H  0.31127819  0.41492831  0.65913729     0.08600
O1813       O  0.23017862  0.42965177  0.56152376    -0.40200
O1814       O  0.25128805  0.40974192  0.56377430    -0.39400
O1815       O  0.36661395  0.43314235  0.64017889    -0.39400
O1816       O  0.34448052  0.45290312  0.63909163    -0.37100
O1817       O  0.28673943  0.40249951  0.70876945    -0.38000
O1818       O  0.33101057  0.41361903  0.71127657    -0.34100
O1819       O  0.22213938  0.45326702  0.63953661    -0.35600
O1820       O  0.26879710  0.46260145  0.63937268    -0.39800
C1821       C  0.31907395  0.48838667  0.75843720    -0.13500
C1822       C  0.34166910  0.48829495  0.77669133     0.16800
C1823       C  0.33988106  0.47848672  0.79438828     0.03100
C1824       C  0.31677811  0.46854028  0.79287958    -0.12000
C1825       C  0.29459646  0.46839685  0.77432926    -0.03100
C1826       C  0.29551558  0.47856819  0.75718224     0.02400
C1827       C  0.36595585  0.49890418  0.77742831     0.09200
N1828       N  0.36042785  0.47882086  0.81448079     0.65600
H1829       H  0.31604925  0.46091888  0.80636278     0.18500
N1830       N  0.27396920  0.47863103  0.73769161     0.76000
H1831       H  0.32005552  0.49599530  0.74494247     0.10000
C1832       C  0.39862895  0.49621817  0.77417648     0.03700
C1833       C  0.42052932  0.50676122  0.77461586    -0.05000
C1834       C  0.41015791  0.52000850  0.77765440    -0.23400
C1835       C  0.37742819  0.52254408  0.78144684     0.12900
C1836       C  0.35579413  0.51203922  0.78122626    -0.12600
N1837       N  0.40966489  0.48300777  0.76895416     0.64600
H1838       H  0.44536288  0.50465746  0.77157834     0.12500
N1839       N  0.36574310  0.53571315  0.78622332     0.61300
H1840       H  0.33090446  0.51414237  0.78410308     0.08600
O1841       O  0.28170559  0.47289488  0.71872659    -0.40200
O1842       O  0.25003855  0.48628049  0.73803506    -0.39400
O1843       O  0.35492669  0.48711725  0.83074854    -0.39400
O1844       O  0.37926546  0.46920019  0.81828216    -0.37100
O1845       O  0.35094850  0.54205157  0.77036990    -0.38000
O1846       O  0.36491664  0.53989069  0.80720197    -0.34100
O1847       O  0.40516173  0.47824019  0.74863211    -0.35600
O1848       O  0.42914950  0.47733078  0.78266445    -0.39800
C1849       C  0.17446430  0.44883912  0.86379191    -0.13500
C1850       C  0.17853378  0.43785186  0.87886255     0.16800
C1851       C  0.19737306  0.42697583  0.87125137     0.03100
C1852       C  0.21165997  0.42722810  0.84889372    -0.12000
C1853       C  0.20714519  0.43812842  0.83359982    -0.03100
C1854       C  0.18841011  0.44906051  0.84137960     0.02400
C1855       C  0.16215247  0.43787735  0.90212054     0.09200
N1856       N  0.20239202  0.41562537  0.88608216     0.65600
H1857       H  0.22564481  0.41873071  0.84328819     0.18500
N1858       N  0.18355494  0.46057782  0.82689603     0.76000
H1859       H  0.15998552  0.45720638  0.86930272     0.10000
C1860       C  0.16815092  0.44792106  0.91892846     0.03700
C1861       C  0.15131457  0.44815445  0.94017771    -0.05000
C1862       C  0.12834184  0.43843900  0.94540359    -0.23400
C1863       C  0.12209549  0.42843000  0.92842780     0.12900
C1864       C  0.13890985  0.42825159  0.90701998    -0.12600
N1865       N  0.19221928  0.45768494  0.91507579     0.64600
H1866       H  0.15679197  0.45586521  0.95284874     0.12500
N1867       N  0.09973872  0.41806907  0.93293805     0.61300
H1868       H  0.13372934  0.42060712  0.89417611     0.08600
O1869       O  0.20198434  0.47041035  0.82892474    -0.40200
O1870       O  0.15767389  0.46198853  0.81588071    -0.39400
O1871       O  0.18792692  0.40488785  0.88176847    -0.39400
O1872       O  0.22530450  0.41556265  0.90045771    -0.37100
O1873       O  0.07188190  0.41905303  0.92484246    -0.38000
O1874       O  0.10927407  0.40704920  0.94122507    -0.34100
O1875       O  0.18438737  0.46967329  0.91116301    -0.35600
O1876       O  0.22074683  0.45488403  0.91996672    -0.39800
C1877       C  0.16483266  0.35222336  0.73851621    -0.13500
C1878       C  0.14864246  0.36323338  0.74819304     0.16800
C1879       C  0.11698541  0.36184728  0.75530315     0.03100
C1880       C  0.10188981  0.34957446  0.75286561    -0.12000
C1881       C  0.11779274  0.33837219  0.74336614    -0.03100
C1882       C  0.14960922  0.33984021  0.73587803     0.02400
C1883       C  0.16474370  0.37620120  0.75097736     0.09200
N1884       N  0.10019528  0.37273989  0.76591719     0.65600
H1885       H  0.07772298  0.34882333  0.75901622     0.18500
N1886       N  0.16653319  0.32905430  0.72506271     0.76000
H1887       H  0.18911850  0.35329545  0.73280092     0.10000
C1888       C  0.18853241  0.37791314  0.76807781     0.03700
C1889       C  0.20216244  0.39046744  0.77127839    -0.05000
C1890       C  0.19269770  0.40147569  0.75745861    -0.23400
C1891       C  0.16921280  0.39968598  0.73998942     0.12900
C1892       C  0.15515172  0.38711688  0.73707922    -0.12600
N1893       N  0.19859581  0.36705075  0.78269228     0.64600
H1894       H  0.22014633  0.39159443  0.78471632     0.12500
N1895       N  0.16093197  0.41021697  0.72408236     0.61300
H1896       H  0.13716560  0.38579653  0.72371295     0.08600
O1897       O  0.18833731  0.32313308  0.73631488    -0.40200
O1898       O  0.16379962  0.32715258  0.70316560    -0.39400
O1899       O  0.08019676  0.37931413  0.75397312    -0.39400
O1900       O  0.10185221  0.37448395  0.78791005    -0.37100
O1901       O  0.17849508  0.41253451  0.70658109    -0.38000
O1902       O  0.13378956  0.41558954  0.72520666    -0.34100
O1903       O  0.22473683  0.36127348  0.77861970    -0.35600
O1904       O  0.18428469  0.36479846  0.80177643    -0.39800
C1905       C  0.07373984  0.81533041  0.08926348    -0.13500
C1906       C  0.04915669  0.81577054  0.10603488     0.16800
C1907       C  0.51300378  0.81899230  0.09965227     0.03100
C1908       C  0.50635294  0.81913578  0.07549769    -0.12000
C1909       C  0.03512945  0.81631142  0.05711873    -0.03100
C1910       C  0.06699802  0.81582965  0.06492957     0.02400
C1911       C  0.05623360  0.81382984  0.13155443     0.09200
N1912       N  0.48765657  0.82107719  0.11595407     0.65600
H1913       H  0.48211701  0.82073523  0.06983150     0.18500
N1914       N  0.09264420  0.81536349  0.04850852     0.76000
H1915       H  0.09807760  0.81440007  0.09506562     0.10000
C1916       C  0.06850506  0.80159561  0.13994740     0.03700
C1917       C  0.07418302  0.79980272  0.16410452    -0.05000
C1918       C  0.06787192  0.81005914  0.18043407    -0.23400
C1919       C  0.05588686  0.82239676  0.17196906     0.12900
C1920       C  0.04988872  0.82412574  0.14775164    -0.12600
N1921       N  0.07470297  0.79076628  0.12415464     0.64600
H1922       H  0.08356542  0.79032760  0.17009066     0.12500
N1923       N  0.05194180  0.83358231  0.18738541     0.61300
H1924       H  0.04102836  0.83362793  0.14150565     0.08600
O1925       O  0.10558231  0.80431413  0.04353095    -0.40200
O1926       O  0.10568901  0.82609385  0.04217303    -0.39400
O1927       O  0.47842782  0.83281960  0.12048297    -0.39400
O1928       O  0.47118128  0.81129183  0.12258096    -0.37100
O1929       O  0.07569158  0.84061738  0.19270451    -0.38000
O1930       O  0.02438835  0.83776177  0.19223324    -0.34100
O1931       O  0.10294579  0.78791416  0.11860627    -0.35600
O1932       O  0.05258895  0.78290696  0.11859687    -0.39800
C1933       C  0.43822057  0.74385295  0.25635983    -0.13500
C1934       C  0.46960087  0.74147233  0.26392315     0.16800
C1935       C  0.47785922  0.72869349  0.27245514     0.03100
C1936       C  0.45514127  0.71852894  0.27275857    -0.12000
C1937       C  0.42376759  0.72082668  0.26512299    -0.03100
C1938       C  0.41532780  0.73365567  0.25690444     0.02400
C1939       C  0.99756748  0.75270580  0.26058667     0.09200
N1940       N  0.01212913  0.72577228  0.27805369     0.65600
H1941       H  0.46193737  0.70882243  0.27950964     0.18500
N1942       N  0.38434997  0.73625329  0.24764319     0.76000
H1943       H  0.43165386  0.75358725  0.24963511     0.10000
C1944       C  0.02464756  0.75198051  0.24599850     0.03700
C1945       C  0.04632138  0.76258957  0.24571038    -0.05000
C1946       C  0.04110138  0.77418784  0.25920919    -0.23400
C1947       C  0.01427396  0.77471688  0.27414664     0.12900
C1948       C  0.99294364  0.76403336  0.27472128    -0.12600
N1949       N  0.02930216  0.74102949  0.23012220     0.64600
H1950       H  0.06634568  0.76204221  0.23386984     0.12500
N1951       N  0.00840175  0.78595942  0.28907327     0.61300
H1952       H  0.97252626  0.76461434  0.28619892     0.08600
O1953       O  0.37926666  0.73466607  0.22590053    -0.40200
O1954       O  0.36433932  0.74255002  0.25996304    -0.39400
O1955       O  0.02018288  0.73015840  0.29803807    -0.39400
O1956       O  0.02802764  0.71640442  0.26885021    -0.37100
O1957       O  0.98738444  0.79440601  0.28335446    -0.38000
O1958       O  0.01943781  0.78600266  0.30976870    -0.34100
O1959       O  0.01082486  0.73967396  0.21274582    -0.35600
O1960       O  0.54813186  0.73432714  0.23105934    -0.39800
C1961       C  0.30973831  0.92604089  0.08484842    -0.13500
C1962       C  0.28662358  0.93015576  0.06845176     0.16800
C1963       C  0.25632520  0.93388272  0.07643762     0.03100
C1964       C  0.24967693  0.93378156  0.10051146    -0.12000
C1965       C  0.27293523  0.93013688  0.11728006    -0.03100
C1966       C  0.30312963  0.92593208  0.10912275     0.02400
C1967       C  0.29452623  0.93111512  0.04310522     0.09200
N1968       N  0.23256042  0.93856993  0.06035845     0.65600
H1969       H  0.22634477  0.93703010  0.10601261     0.18500
N1970       N  0.32742499  0.92165189  0.12509045     0.76000
H1971       H  0.33298335  0.92301384  0.07879524     0.10000
C1972       C  0.31646836  0.94059196  0.03516671     0.03700
C1973       C  0.32197379  0.94206557  0.01107715    -0.05000
C1974       C  0.30657700  0.93395242  0.99429588    -0.23400
C1975       C  0.28502974  0.92418209  0.00239128     0.12900
C1976       C  0.27886714  0.92299112  0.02662442    -0.12600
N1977       N  0.33311446  0.94895193  0.05139705     0.64600
H1978       H  0.33887723  0.94951913  0.00564360     0.12500
N1979       N  0.26996990  0.91511878  0.98649627     0.61300
H1980       H  0.26214857  0.91560516  0.03263082     0.08600
O1981       O  0.35054822  0.92923657  0.12943630    -0.40200
O1982       O  0.32877088  0.90955515  0.13130672    -0.39400
O1983       O  0.20861633  0.93145098  0.05601373    -0.39400
O1984       O  0.23323284  0.95050310  0.05320682    -0.37100
O1985       O  0.28338695  0.90414876  0.98163614    -0.38000
O1986       O  0.24120076  0.91689014  0.98097850    -0.34100
O1987       O  0.36155202  0.94623161  0.05670495    -0.35600
O1988       O  0.32148141  0.96014329  0.05708230    -0.39800
C1989       C  0.32362204  0.98490789  0.15380008    -0.13500
C1990       C  0.33668876  0.99136213  0.17344595     0.16800
C1991       C  0.32602685  0.98804129  0.19623574     0.03100
C1992       C  0.30421418  0.97767430  0.19911250    -0.12000
C1993       C  0.29206564  0.97090445  0.17949878     0.00100
C1994       C  0.30137902  0.97472355  0.15666419     0.02400
C1995       C  0.36229719  0.00113885  0.16971853     0.09200
N1996       N  0.33682024  0.99519609  0.21652145     0.65600
H1997       H  0.29718621  0.97473667  0.21664889     0.18500
N1998       N  0.29066172  0.96756378  0.13637655     0.76000
H1999       H  0.33167078  0.98741090  0.13629406     0.10000
C2000       C  0.39362817  0.99859269  0.17735127     0.03700
C2001       C  0.41698814  0.00831968  0.17424700    -0.05000
C2002       C  0.40989837  0.02051966  0.16307239    -0.23400
C2003       C  0.37877273  0.02264153  0.15418713     0.12900
C2004       C  0.35532997  0.01302020  0.15777513    -0.12600
N2005       N  0.40230921  0.98602785  0.18759896     0.64600
H2006       H  0.44059874  0.00635465  0.18093909     0.12500
N2007       N  0.37040268  0.03448126  0.14148274     0.61300
H2008       H  0.33152061  0.01486519  0.15133594     0.08600
O2009       O  0.30796935  0.95845539  0.12779243    -0.40200
O2010       O  0.26781603  0.97216257  0.12438123    -0.39400
O2011       O  0.32579169  0.00672206  0.22058364    -0.39400
O2012       O  0.35156293  0.98905827  0.23264280    -0.37100
O2013       O  0.37419167  0.03480901  0.11944037    -0.38000
O2014       O  0.35379016  0.04339893  0.15134875    -0.34100
O2015       O  0.40357975  0.97575118  0.17472251    -0.35600
O2016       O  0.41465810  0.98569177  0.20788160    -0.39800
C2017       C  0.21611157  0.87500691  0.19505665    -0.13500
C2018       C  0.18334267  0.87407063  0.19868092     0.16800
C2019       C  0.16406666  0.88553321  0.19603811     0.03100
C2020       C  0.17792996  0.89785328  0.19102435    -0.12000
C2021       C  0.21099097  0.89900288  0.18878386    -0.03100
C2022       C  0.23009679  0.88731232  0.19014966     0.02400
C2023       C  0.17055946  0.86160531  0.20865030     0.09200
N2024       N  0.13044220  0.88488951  0.19916946     0.65600
H2025       H  0.16285231  0.90659283  0.18989590     0.18500
N2026       N  0.26383933  0.88775558  0.18747740     0.76000
H2027       H  0.23110396  0.86631390  0.19730448     0.10000
C2028       C  0.17423778  0.84918748  0.19723813     0.03700
C2029       C  0.16316933  0.83756121  0.20808998    -0.05000
C2030       C  0.14808818  0.83817553  0.23011111    -0.23400
C2031       C  0.14543298  0.85055292  0.24181080     0.12900
C2032       C  0.15683796  0.86210654  0.23111210    -0.12600
N2033       N  0.18771882  0.84831823  0.17419329     0.64600
H2034       H  0.16478338  0.82819013  0.19871320     0.12500
N2035       N  0.13189284  0.85150864  0.26481566     0.61300
H2036       H  0.15530073  0.87147175  0.24048866     0.08600
O2037       O  0.27600317  0.88524387  0.16765238    -0.40200
O2038       O  0.28135182  0.88798363  0.20555958    -0.39400
O2039       O  0.11802712  0.88987403  0.21741304    -0.39400
O2040       O  0.11298304  0.88177730  0.18194195    -0.37100
O2041       O  0.14931545  0.84959712  0.28263540    -0.38000
O2042       O  0.10475391  0.85672272  0.26738562    -0.34100
O2043       O  0.21445194  0.84277477  0.17142225    -0.35600
O2044       O  0.17063708  0.85083872  0.15641926    -0.39800
C2045       C  0.26809865  0.81883196  0.65447640    -0.13500
C2046       C  0.28147526  0.80963050  0.63849854     0.16800
C2047       C  0.30097614  0.79930864  0.64734216     0.03100
C2048       C  0.30717182  0.79841856  0.67150781    -0.12000
C2049       C  0.29453559  0.80773751  0.68765007    -0.03100
C2050       C  0.27445516  0.81798355  0.67884338     0.02400
C2051       C  0.27523071  0.81082423  0.61266222     0.09200
N2052       N  0.31453094  0.78949870  0.63198662     0.65600
H2053       H  0.32242051  0.79040161  0.67751872     0.18500
N2054       N  0.26120558  0.82788162  0.69413655     0.76000
H2055       H  0.25329072  0.82686263  0.64798341     0.10000
C2056       C  0.24417652  0.81022397  0.60350541     0.03700
C2057       C  0.23923150  0.81013554  0.57907765    -0.05000
C2058       C  0.26478661  0.81065686  0.56310234    -0.23400
C2059       C  0.29585398  0.81196015  0.57231742     0.12900
C2060       C  0.30077583  0.81201965  0.59686261    -0.12600
N2061       N  0.21739856  0.80903093  0.61876040     0.64600
H2062       H  0.21515032  0.80936672  0.57265484     0.12500
N2063       N  0.32279895  0.81276247  0.55715240     0.61300
H2064       H  0.32468255  0.81279171  0.60359990     0.08600
O2065       O  0.23310153  0.82662063  0.70143802    -0.40200
O2066       O  0.27532287  0.83886028  0.69691188    -0.39400
O2067       O  0.34385779  0.78982048  0.62749708    -0.39400
O2068       O  0.29877727  0.77923043  0.62672622    -0.37100
O2069       O  0.33421892  0.82404583  0.55221696    -0.38000
O2070       O  0.33859114  0.80232811  0.55255755    -0.34100
O2071       O  0.19905417  0.81891099  0.62167759    -0.35600
O2072       O  0.20900575  0.79762898  0.62578573    -0.39800
C2073       C  0.33148004  0.75701188  0.48591295    -0.13500
C2074       C  0.32529169  0.74897081  0.50557417     0.16800
C2075       C  0.29752030  0.75138541  0.51891467     0.03100
C2076       C  0.27733723  0.76207796  0.51291492    -0.12000
C2077       C  0.28498760  0.77075906  0.49439859    -0.03100
C2078       C  0.31175619  0.76785033  0.48029053     0.02400
C2079       C  0.34921299  0.73868842  0.51238447     0.09200
N2080       N  0.29108038  0.74398482  0.53991584     0.65600
H2081       H  0.25726368  0.76430076  0.52411114     0.18500
N2082       N  0.31969757  0.77599681  0.46049929     0.76000
H2083       H  0.35228567  0.75509904  0.47527790     0.10000
C2084       C  0.34151211  0.72505584  0.51419663     0.03700
C2085       C  0.36501808  0.71578978  0.52063788    -0.05000
C2086       C  0.39674932  0.71968429  0.52445251    -0.23400
C2087       C  0.40440808  0.73334412  0.52246072     0.12900
C2088       C  0.38064662  0.74268849  0.51671113    -0.12600
N2089       N  0.31065257  0.72029978  0.50786315     0.64600
H2090       H  0.35862059  0.70535729  0.52136053     0.12500
N2091       N  0.43602258  0.73795463  0.52633495     0.61300
H2092       H  0.38682845  0.75313139  0.51542948     0.08600
O2093       O  0.30736747  0.77357482  0.44067217    -0.40200
O2094       O  0.34302101  0.78382648  0.46181359    -0.39400
O2095       O  0.30965379  0.74493611  0.55732202    -0.39400
O2096       O  0.26414121  0.73876228  0.54272322    -0.37100
O2097       O  0.45378852  0.74011101  0.50888886    -0.38000
O2098       O  0.44356825  0.74255220  0.54627378    -0.34100
O2099       O  0.30203528  0.72062985  0.48654963    -0.35600
O2100       O  0.29512215  0.71335603  0.52232583    -0.39800
C2101       C  0.14695061  0.81478616  0.35225023    -0.13500
C2102       C  0.17145811  0.80548832  0.35643753     0.16800
C2103       C  0.17842668  0.79593047  0.33891688     0.03100
C2104       C  0.16122947  0.79584555  0.31770591    -0.12000
C2105       C  0.13680398  0.80520831  0.31325271    -0.03100
C2106       C  0.12970557  0.81474193  0.33096550     0.02400
C2107       C  0.18781312  0.80521220  0.37981850     0.09200
N2108       N  0.20358278  0.78644163  0.34212377     0.65600
H2109       H  0.16740198  0.78847921  0.30457040     0.18500
N2110       N  0.10546136  0.82460976  0.32760438     0.76000
H2111       H  0.14086458  0.82198969  0.36566624     0.10000
C2112       C  0.20515685  0.81621998  0.38846994     0.03700
C2113       C  0.21911531  0.81569702  0.41102073    -0.05000
C2114       C  0.21533635  0.80445828  0.42556649    -0.23400
C2115       C  0.19796784  0.79346427  0.41685954     0.12900
C2116       C  0.18472442  0.79386817  0.39415067    -0.12600
N2117       N  0.20846930  0.82807275  0.37469597     0.64600
H2118       H  0.23178935  0.82429311  0.41751551     0.12500
N2119       N  0.19343932  0.78178933  0.43091412     0.61300
H2120       H  0.17124946  0.78542862  0.38794087     0.08600
O2121       O  0.11294965  0.83621347  0.32105452    -0.40200
O2122       O  0.07787617  0.82251474  0.33535290    -0.39400
O2123       O  0.19714832  0.77424777  0.34493592    -0.39400
O2124       O  0.23183010  0.78983182  0.33794623    -0.37100
O2125       O  0.16741510  0.78012766  0.44146522    -0.38000
O2126       O  0.21291923  0.77219595  0.42941678    -0.34100
O2127       O  0.19135456  0.83814800  0.37920032    -0.35600
O2128       O  0.23213955  0.82930582  0.36130371    -0.39800
C2129       C  0.06521827  0.93820507  0.53639358    -0.13500
C2130       C  0.04441671  0.92778090  0.54177714     0.16800
C2131       C  0.03251698  0.91981892  0.52330426     0.03100
C2132       C  0.04135941  0.92242485  0.49988397    -0.12000
C2133       C  0.06220901  0.93291669  0.49433680    -0.03100
C2134       C  0.07416532  0.94084191  0.51308589     0.02400
C2135       C  0.03293941  0.92644118  0.56644621     0.09200
N2136       N  0.01214925  0.90879411  0.52813749     0.65600
H2137       H  0.03228965  0.91604909  0.48611411     0.18500
N2138       N  0.09491587  0.95183133  0.50889887     0.76000
H2139       H  0.07391520  0.94457711  0.55030889     0.10000
C2140       C  0.05388339  0.92376507  0.58530033     0.03700
C2141       C  0.04306960  0.92454577  0.60865898    -0.05000
C2142       C  0.01148923  0.92818611  0.61382454    -0.23400
C2143       C  0.48931912  0.92784221  0.59485935     0.12900
C2144       C  0.50036932  0.92717858  0.57156565    -0.12600
N2145       N  0.08634463  0.92034420  0.58099656     0.64600
H2146       H  0.05973449  0.92260393  0.62275779     0.12500
N2147       N  0.45584606  0.92883221  0.59867060     0.61300
H2148       H  0.48345621  0.92773727  0.55725670     0.08600
O2149       O  0.12427574  0.95053969  0.51289086    -0.40200
O2150       O  0.08334178  0.96333671  0.50553124    -0.39400
O2151       O  0.49017510  0.90541724  0.52419775    -0.39400
O2152       O  0.53500031  0.89675538  0.53624066    -0.37100
O2153       O  0.44236392  0.94011070  0.59744281    -0.38000
O2154       O  0.43921347  0.91838880  0.59820315    -0.34100
O2155       O  0.10773837  0.92885550  0.58482553    -0.35600
O2156       O  0.09397480  0.90827434  0.57771045    -0.39800
C2157       C  0.01095022  0.98864931  0.42438168    -0.13500
C2158       C  0.47671063  0.98398806  0.41627649     0.16800
C2159       C  0.47155610  0.97069267  0.40922762     0.03100
C2160       C  0.00040593  0.96262247  0.40889266    -0.12000
C2161       C  0.03119340  0.96625138  0.41625178    -0.03100
C2162       C  0.03644008  0.97959601  0.42341439     0.02400
C2163       C  0.45002153  0.99359561  0.41988772     0.09200
N2164       N  0.44026323  0.96593958  0.40442116     0.65600
H2165       H  0.99558574  0.95254597  0.40319806     0.18500
N2166       N  0.06721210  0.98409659  0.43037975     0.76000
H2167       H  0.01534411  0.99876951  0.42999628     0.10000
C2168       C  0.44729835  0.00072794  0.44123482     0.03700
C2169       C  0.42517448  0.01110759  0.44324588    -0.05000
C2170       C  0.40509868  0.01454885  0.42440389    -0.23400
C2171       C  0.40613796  0.00686263  0.40358860     0.12900
C2172       C  0.42864797  0.99648058  0.40142210    -0.12600
N2173       N  0.46746058  0.99777565  0.46090351     0.64600
H2174       H  0.42449921  0.01684865  0.45934655     0.12500
N2175       N  0.38670254  0.01024944  0.38377165     0.61300
H2176       H  0.43060063  0.99122415  0.38491215     0.08600
O2177       O  0.07373320  0.98535306  0.45198411    -0.40200
O2178       O  0.08568006  0.98891289  0.41515242    -0.39400
O2179       O  0.43254664  0.96291576  0.38359448    -0.39400
O2180       O  0.42244617  0.96264559  0.42126307    -0.37100
O2181       O  0.36273607  0.00323703  0.37896869    -0.38000
O2182       O  0.39626963  0.01876879  0.36906250    -0.34100
O2183       O  0.48777864  0.00620687  0.46756300    -0.35600
O2184       O  0.46145259  0.98785553  0.47382148    -0.39800
C2185       C  0.14104773  0.93124616  0.32116625    -0.13500
C2186       C  0.16992069  0.93814210  0.31950202     0.16800
C2187       C  0.18114989  0.94509391  0.33936063     0.03100
C2188       C  0.16380984  0.94500965  0.36042828    -0.12000
C2189       C  0.13491941  0.93804145  0.36242891    -0.03100
C2190       C  0.12345669  0.93119278  0.34226908     0.02400
C2191       C  0.18745723  0.93850467  0.29670245     0.09200
N2192       N  0.21077273  0.95196830  0.33863294     0.65600
H2193       H  0.17348685  0.95026489  0.37539886     0.18500
N2194       N  0.09372596  0.92439179  0.34261002     0.76000
H2195       H  0.13187384  0.92607933  0.30592674     0.10000
C2196       C  0.20221135  0.92699169  0.28734204     0.03700
C2197       C  0.21832221  0.92763487  0.26572272    -0.05000
C2198       C  0.21924876  0.93955898  0.25271090    -0.23400
C2199       C  0.20439294  0.95108827  0.26202903     0.12900
C2200       C  0.18908664  0.95053395  0.28400476    -0.12600
N2201       N  0.20061263  0.91450446  0.29943038     0.64600
H2202       H  0.22888525  0.91864850  0.25859755     0.12500
N2203       N  0.20473286  0.96344419  0.24941947     0.61300
H2204       H  0.17786139  0.95942386  0.29092526     0.08600
O2205       O  0.09330016  0.91178698  0.34304490    -0.40200
O2206       O  0.06856167  0.93075756  0.33781560    -0.39400
O2207       O  0.21109064  0.96457541  0.33861680    -0.39400
O2208       O  0.23629535  0.94556336  0.34198916    -0.37100
O2209       O  0.18070516  0.96695229  0.23755310    -0.38000
O2210       O  0.22632652  0.97181945  0.25355862    -0.34100
O2211       O  0.18067772  0.90588225  0.29291631    -0.35600
O2212       O  0.22253725  0.91120859  0.31350546    -0.39800
C2213       C  0.17638572  0.89418008  0.47935179    -0.13500
C2214       C  0.17415822  0.88209578  0.46694805     0.16800
C2215       C  0.16082453  0.88199538  0.44417608     0.03100
C2216       C  0.14875109  0.89380005  0.43450355    -0.12000
C2217       C  0.14976511  0.90582485  0.44720074    -0.03100
C2218       C  0.16412953  0.90602742  0.46970780     0.02400
C2219       C  0.18475380  0.86952271  0.47812705     0.09200
N2220       N  0.15904278  0.86991587  0.43078517     0.65600
H2221       H  0.13774550  0.89349113  0.41730682     0.18500
N2222       N  0.16347174  0.91780635  0.48395928     0.76000
H2223       H  0.18626538  0.89428937  0.49691293     0.10000
C2224       C  0.21686297  0.86732853  0.48367119     0.03700
C2225       C  0.22686062  0.85468704  0.49105742    -0.05000
C2226       C  0.20530948  0.84401273  0.49281041    -0.23400
C2227       C  0.17259280  0.84664560  0.48961692     0.12900
C2228       C  0.16262195  0.85934829  0.48218658    -0.12600
N2229       N  0.24000852  0.87749981  0.48000051     0.64600
H2230       H  0.25193250  0.85307016  0.49401622     0.12500
N2231       N  0.14935097  0.83646050  0.49269804     0.61300
H2232       H  0.13772913  0.86114595  0.47878871     0.08600
O2233       O  0.18816421  0.92479343  0.48602361    -0.40200
O2234       O  0.14017990  0.91993527  0.49743270    -0.39400
O2235       O  0.13296487  0.86383418  0.42912001    -0.39400
O2236       O  0.18191164  0.86655917  0.41768569    -0.37100
O2237       O  0.13591742  0.83519872  0.51241837    -0.38000
O2238       O  0.13812061  0.83054957  0.47491314    -0.34100
O2239       O  0.25196409  0.88344286  0.49748855    -0.35600
O2240       O  0.25231877  0.87888157  0.45990587    -0.39800
O2241       O  0.55786390  0.92780507  0.45232792    -0.73600
O2242       O  0.59267855  0.92993862  0.38935178    -0.73600
O2243       O  0.60335750  0.91481134  0.42819891    -0.73700
O2244       O  0.54563260  0.94293221  0.41341277    -0.73700
O2245       O  0.58067880  0.95797279  0.42564049    -0.73700
O2246       O  0.63861362  0.92948942  0.44174969    -0.73600
O2247       O  0.62800560  0.94460050  0.40251516    -0.73600
O2248       O  0.59273487  0.94295078  0.46446837    -0.73700
Ni2249     Ni  0.57359456  0.92839277  0.42027191     1.25400
Ni2250     Ni  0.61125894  0.94432363  0.43387742     1.25400
C2251       C  0.57029140  0.93479245  0.46897498     0.88600
C2252       C  0.61681661  0.93745666  0.38571004     0.88500
C2253       C  0.62974157  0.91739935  0.43833431     0.88500
C2254       C  0.55302365  0.95508558  0.41759315     0.88700
O2255       O  0.78181317  0.81348216  0.51852619    -0.73600
O2256       O  0.75549143  0.81089706  0.45323469    -0.73600
O2257       O  0.75050299  0.82939221  0.48765291    -0.73700
O2258       O  0.78820472  0.79498670  0.48390607    -0.73700
O2259       O  0.74335256  0.78573577  0.49651373    -0.73700
O2260       O  0.70391594  0.82060768  0.49739015    -0.73600
O2261       O  0.71086642  0.80102117  0.46474794    -0.73600
O2262       O  0.73509893  0.80513820  0.52914929    -0.73700
Ni2263     Ni  0.77063319  0.81248651  0.48539952     1.25400
Ni2264     Ni  0.72168229  0.80277397  0.49731690     1.25400
C2265       C  0.76227196  0.80988293  0.53466734     0.88600
C2266       C  0.72855787  0.80555877  0.44834847     0.88500
C2267       C  0.72112115  0.83081065  0.49267929     0.88500
C2268       C  0.77258858  0.78471839  0.49029092     0.88700
O2269       O  0.78515170  0.92838975  0.16040627    -0.73600
O2270       O  0.75819462  0.93410851  0.22463813    -0.73600
O2271       O  0.75429221  0.91394017  0.19345917    -0.73700
O2272       O  0.79038173  0.94863607  0.19164000    -0.73700
O2273       O  0.74521637  0.95709848  0.17709605    -0.73700
O2274       O  0.70757481  0.92232621  0.18220249    -0.73600
O2275       O  0.71335886  0.94351363  0.21152136    -0.73600
O2276       O  0.73821968  0.93605964  0.14819431    -0.73700
Ni2277     Ni  0.77368123  0.93101907  0.19304335     1.25400
Ni2278     Ni  0.72444194  0.94007492  0.17934305     1.25400
C2279       C  0.76576057  0.93125240  0.14361711     0.88600
C2280       C  0.73088074  0.93945199  0.22855962     0.88500
C2281       C  0.72495431  0.91235642  0.18853465     0.88500
C2282       C  0.77439983  0.95839596  0.18311224     0.88700
O2283       O  0.55675747  0.81416618  0.22373037    -0.73600
O2284       O  0.59130925  0.81184219  0.28680008    -0.73600
O2285       O  0.59907926  0.82800914  0.24919512    -0.73700
O2286       O  0.54727956  0.79757252  0.26172015    -0.73700
O2287       O  0.58576153  0.78407742  0.24887205    -0.73700
O2288       O  0.63730213  0.81468177  0.23527365    -0.73600
O2289       O  0.62970283  0.79858205  0.27319651    -0.73600
O2290       O  0.59471755  0.80029588  0.21112989    -0.73700
Ni2291     Ni  0.57208969  0.81329752  0.25591414     1.25400
Ni2292     Ni  0.61315638  0.79888380  0.24178377     1.25400
C2293       C  0.57115659  0.80805945  0.20687427     0.88600
C2294       C  0.61718587  0.80523110  0.29012903     0.88500
C2295       C  0.62622942  0.82640425  0.23952350     0.88500
C2296       C  0.55773161  0.78578393  0.25724169     0.88700
O2297       O  0.77620244  0.42739094  0.74229168    -0.73600
O2298       O  0.74940528  0.43204997  0.80676217    -0.73600
O2299       O  0.73664430  0.41459015  0.77199045    -0.73700
O2300       O  0.79019263  0.44478985  0.77736982    -0.73700
O2301       O  0.75105819  0.45819215  0.76495430    -0.73700
O2302       O  0.69657992  0.42757877  0.75972060    -0.73600
O2303       O  0.71017865  0.44545055  0.79459907    -0.73600
O2304       O  0.73640761  0.44065454  0.73072349    -0.73700
Ni2305     Ni  0.76454528  0.42927376  0.77506176     1.25400
Ni2306     Ni  0.72209669  0.44346066  0.76215249     1.25400
C2307       C  0.76042982  0.43327684  0.72585348     0.88600
C2308       C  0.72498145  0.43937119  0.81121783     0.88500
C2309       C  0.70808626  0.41602617  0.76481042     0.88500
C2310       C  0.77993410  0.45637256  0.77156055     0.88700
O2311       O  0.53519117  0.31306190  0.71837301    -0.73600
O2312       O  0.55740702  0.31057061  0.78476793    -0.73600
O2313       O  0.56865771  0.32798815  0.74982666    -0.73700
O2314       O  0.52224627  0.29566011  0.75344416    -0.73700
O2315       O  0.56534146  0.28406428  0.74317278    -0.73700
O2316       O  0.61324258  0.31683751  0.74176964    -0.73600
O2317       O  0.59993377  0.29842102  0.77500685    -0.73600
O2318       O  0.57987616  0.30219320  0.70972371    -0.73700
Ni2319     Ni  0.54429162  0.31220581  0.75195096     1.25400
Ni2320     Ni  0.59112030  0.29996184  0.74208887     1.25400
C2321       C  0.55414742  0.30793252  0.70302901     0.88600
C2322       C  0.58294799  0.30424664  0.79063053     0.88500
C2323       C  0.59857875  0.32785117  0.74615872     0.88500
C2324       C  0.53553036  0.28457561  0.74796021     0.88700
O2325       O  0.56335428  0.43269563  0.03980447    -0.73600
O2326       O  0.59340748  0.43560787  0.97551744    -0.73600
O2327       O  0.59926220  0.41754286  0.01092111    -0.73700
O2328       O  0.55597893  0.45095731  0.00429109    -0.73700
O2329       O  0.59844721  0.46166442  0.01797922    -0.73700
O2330       O  0.64317564  0.42807712  0.02257913    -0.73600
O2331       O  0.63557038  0.44667382  0.98865005    -0.73600
O2332       O  0.60713416  0.44297776  0.05195318    -0.73700
Ni2333     Ni  0.57637093  0.43387893  0.00711680     1.25400
Ni2334     Ni  0.62252201  0.44526842  0.02068893     1.25400
C2335       C  0.58109690  0.43701573  0.05660814     0.88600
C2336       C  0.62018693  0.44131769  0.97165165     0.88500
C2337       C  0.62817970  0.41729419  0.01780529     0.88500
C2338       C  0.56964867  0.46180203  0.01048946     0.88700
O2339       O  0.76733599  0.30845353  0.00994200    -0.73600
O2340       O  0.72477386  0.30557549  0.94966625    -0.73600
O2341       O  0.72507984  0.32333376  0.98542840    -0.73700
O2342       O  0.76867850  0.29066706  0.97393481    -0.73700
O2343       O  0.72993157  0.27912269  0.99096841    -0.73700
O2344       O  0.68534154  0.31235391  0.00258806    -0.73600
O2345       O  0.68567965  0.29430164  0.96663360    -0.73600
O2346       O  0.72771457  0.29710927  0.02624746    -0.73700
Ni2347     Ni  0.74783314  0.30734421  0.97904377     1.25400
Ni2348     Ni  0.70569238  0.29527720  0.99707417     1.25400
C2349       C  0.75408152  0.30331506  0.02816117     0.88600
C2350       C  0.69755615  0.29984073  0.94834344     0.88500
C2351       C  0.69865917  0.32329601  0.99635209     0.88500
C2352       C  0.75751920  0.27959263  0.98135503     0.88700
O2353       O  0.68153661  0.17803860  0.44493587    -0.73600
O2354       O  0.71773330  0.18025880  0.50748860    -0.73600
O2355       O  0.67359576  0.19469961  0.48245318    -0.73700
O2356       O  0.72400040  0.16379486  0.47043790    -0.73700
O2357       O  0.76273061  0.17652833  0.45605480    -0.73700
O2358       O  0.71199285  0.20781093  0.46889337    -0.73600
O2359       O  0.75622965  0.19315768  0.49347672    -0.73600
O2360       O  0.72005080  0.19124228  0.43181601    -0.73700
Ni2361     Ni  0.69775455  0.17880896  0.47690058     1.25400
Ni2362     Ni  0.73910673  0.19268893  0.46219039     1.25400
C2363       C  0.69548736  0.18410596  0.42792630     0.88600
C2364       C  0.74385080  0.18663386  0.51049547     0.88500
C2365       C  0.68382993  0.20631281  0.47705955     0.88500
C2366       C  0.75131762  0.16501317  0.46101681     0.88700
O2367       O  0.90162063  0.05837328  0.40181322    -0.73600
O2368       O  0.87103869  0.05265713  0.46526396    -0.73600
O2369       O  0.90620493  0.03838904  0.43385466    -0.73700
O2370       O  0.86776015  0.07270216  0.43349186    -0.73700
O2371       O  0.82228355  0.06416953  0.42044242    -0.73700
O2372       O  0.86274653  0.02943405  0.41792486    -0.73600
O2373       O  0.82760346  0.04310473  0.45060248    -0.73600
O2374       O  0.85606962  0.05028818  0.38802128    -0.73700
Ni2375     Ni  0.88822648  0.05580978  0.43414786     1.25400
Ni2376     Ni  0.84055536  0.04640841  0.41878667     1.25400
C2377       C  0.88341519  0.05539298  0.38438305     0.88600
C2378       C  0.84404340  0.04697924  0.46831556     0.88500
C2379       C  0.89145777  0.02834997  0.42541935     0.88500
C2380       C  0.83890653  0.07424603  0.42699540     0.88700
O2381       O  0.68598204  0.05715969  0.69641051    -0.73600
O2382       O  0.71488639  0.05123612  0.63260133    -0.73600
O2383       O  0.66975157  0.04004826  0.66099290    -0.73700
O2384       O  0.72933978  0.06825680  0.66776942    -0.73700
O2385       O  0.76570503  0.05403752  0.68183468    -0.73700
O2386       O  0.70578536  0.02529734  0.67341096    -0.73600
O2387       O  0.75145891  0.03702746  0.64602237    -0.73600
O2388       O  0.72175479  0.04231403  0.70891597    -0.73700
Ni2389     Ni  0.69861752  0.05461446  0.66390462     1.25400
Ni2390     Ni  0.73737854  0.03908255  0.67790993     1.25400
C2391       C  0.70013646  0.05100227  0.71335101     0.88600
C2392       C  0.73907948  0.04360756  0.62894425     0.88500
C2393       C  0.67740033  0.02804294  0.66643772     0.88500
C2394       C  0.75687305  0.06595078  0.67642115     0.88700
O2395       O  0.91399786  0.17269026  0.73562059    -0.73600
O2396       O  0.88478769  0.17847340  0.67159680    -0.73600
O2397       O  0.91560725  0.19344899  0.70496837    -0.73700
O2398       O  0.88493828  0.15778863  0.70186901    -0.73700
O2399       O  0.83729720  0.16454925  0.71402937    -0.73700
O2400       O  0.86971705  0.20040567  0.72036291    -0.73600
O2401       O  0.83898436  0.18621153  0.68576795    -0.73600
O2402       O  0.86613522  0.17881609  0.74840323    -0.73700
Ni2403     Ni  0.90154306  0.17539910  0.70299444     1.25400
Ni2404     Ni  0.85137632  0.18278056  0.71755135     1.25400
C2405       C  0.89433214  0.17468969  0.75260705     0.88600
C2406       C  0.85643545  0.18297100  0.66825132     0.88500
C2407       C  0.89852482  0.20266474  0.71416721     0.88500
C2408       C  0.85606180  0.15522077  0.70684653     0.88700
O2409       O  0.90340753  0.56374023  0.01043707    -0.73600
O2410       O  0.87692716  0.55823763  0.07513064    -0.73600
O2411       O  0.91778017  0.54572407  0.04430080    -0.73700
O2412       O  0.86404910  0.57634080  0.04146608    -0.73700
O2413       O  0.82361015  0.56381646  0.02912202    -0.73700
O2414       O  0.87855779  0.53275259  0.03149256    -0.73600
O2415       O  0.83771825  0.54520621  0.06249577    -0.73600
O2416       O  0.86298679  0.55118266  0.99848641    -0.73700
Ni2417     Ni  0.89197776  0.56140543  0.04334360     1.25400
Ni2418     Ni  0.84931605  0.54774238  0.03005087     1.25400
C2419       C  0.88722637  0.55835545  0.99370751     0.88600
C2420       C  0.85210381  0.55119838  0.07935038     0.88500
C2421       C  0.90784014  0.53435297  0.03723732     0.88500
C2422       C  0.83512852  0.57519661  0.03501367     0.88700
O2423       O  0.67815552  0.68271606  0.00200016    -0.73600
O2424       O  0.70511348  0.68887771  0.06620714    -0.73600
O2425       O  0.67086541  0.70281475  0.03332924    -0.73700
O2426       O  0.71076684  0.66871851  0.03494313    -0.73700
O2427       O  0.75642273  0.67743310  0.02292171    -0.73700
O2428       O  0.71479091  0.71193944  0.01875224    -0.73600
O2429       O  0.74904214  0.69845716  0.05276601    -0.73600
O2430       O  0.72404109  0.69105122  0.98943581    -0.73700
Ni2431     Ni  0.68964766  0.68551008  0.03464820     1.25400
Ni2432     Ni  0.73770135  0.69509752  0.02061352     1.25400
C2433       C  0.69713483  0.68573283  0.98513836     0.88600
C2434       C  0.73213675  0.69440122  0.07002412     0.88500
C2435       C  0.68542471  0.71285685  0.02477418     0.88500
C2436       C  0.73985819  0.66727160  0.02907275     0.88700
O2437       O  0.67556116  0.56161519  0.30377244    -0.73600
O2438       O  0.71099887  0.55963648  0.24071092    -0.73600
O2439       O  0.67444088  0.54352219  0.26804426    -0.73700
O2440       O  0.71043027  0.57786927  0.27621644    -0.73700
O2441       O  0.75472035  0.56875656  0.29076152    -0.73700
O2442       O  0.71791920  0.53376065  0.28260562    -0.73600
O2443       O  0.75481438  0.55036559  0.25575097    -0.73600
O2444       O  0.71965215  0.55209152  0.31759887    -0.73700
Ni2445     Ni  0.69129455  0.56095559  0.27161885     1.25400
Ni2446     Ni  0.73833510  0.55087785  0.28713153     1.25400
C2447       C  0.69224491  0.55721603  0.32119619     0.88600
C2448       C  0.73931543  0.55494908  0.23806877     0.88500
C2449       C  0.68952080  0.53299459  0.27435701     0.88500
C2450       C  0.73817375  0.57909935  0.28502210     0.88700
O2451       O  0.90277836  0.68209845  0.29476306    -0.73600
O2452       O  0.86736453  0.68653731  0.23212743    -0.73600
O2453       O  0.91237046  0.69928766  0.25863173    -0.73700
O2454       O  0.85962049  0.66926107  0.26778454    -0.73700
O2455       O  0.82161611  0.68210964  0.28340279    -0.73700
O2456       O  0.87462561  0.71296204  0.27221535    -0.73600
O2457       O  0.82929346  0.69947751  0.24710491    -0.73600
O2458       O  0.86551134  0.69586592  0.30866821    -0.73700
Ni2459     Ni  0.88689604  0.68388518  0.26277307     1.25400
Ni2460     Ni  0.84640251  0.69811826  0.27832125     1.25400
C2461       C  0.88970554  0.68830653  0.31210402     0.88600
C2462       C  0.84164673  0.69340270  0.22948536     0.88500
C2463       C  0.90286251  0.71099394  0.26428885     0.88500
C2464       C  0.83222924  0.67058980  0.27703659     0.88700
O2465       O  0.51893377  0.92574123  0.65592940    -0.73600
O2466       O  0.99329208  0.93021449  0.72040936    -0.73600
O2467       O  0.98676803  0.91129809  0.68691750    -0.73700
O2468       O  0.52707822  0.94489201  0.68918999    -0.73700
O2469       O  0.98455227  0.95502804  0.67563608    -0.73700
O2470       O  0.94127267  0.92101225  0.67606300    -0.73600
O2471       O  0.94993994  0.94082547  0.70774632    -0.73600
O2472       O  0.97481004  0.93526146  0.64373356    -0.73700
Ni2473     Ni  0.00865317  0.92779037  0.68857446     1.25400
Ni2474     Ni  0.96106780  0.93842363  0.67536558     1.25400
C2475       C  0.00162680  0.92983059  0.63898139     0.88600
C2476       C  0.96661868  0.93602315  0.72468716     0.88500
C2477       C  0.95730308  0.91051717  0.68167799     0.88500
C2478       C  0.51330090  0.95548943  0.68170285     0.88700
O2479       O  0.80404731  0.81193092  0.72550698    -0.73600
O2480       O  0.84243998  0.80982913  0.78752066    -0.73600
O2481       O  0.85024531  0.82510865  0.74851483    -0.73700
O2482       O  0.79464493  0.79671832  0.76450924    -0.73700
O2483       O  0.83007972  0.78184956  0.75172611    -0.73700
O2484       O  0.88559638  0.81060654  0.73401356    -0.73600
O2485       O  0.87813280  0.79533626  0.77377762    -0.73600
O2486       O  0.83914138  0.79687760  0.71281684    -0.73700
Ni2487     Ni  0.82160574  0.81137699  0.75712432     1.25400
Ni2488     Ni  0.85954243  0.79561312  0.74277599     1.25400
C2489       C  0.81593346  0.80487678  0.70872355     0.88600
C2490       C  0.86707718  0.80237466  0.79078629     0.88500
C2491       C  0.87612103  0.82265354  0.73759414     0.88500
C2492       C  0.80244849  0.78461738  0.76005031     0.88700
O2493       O  0.80941669  0.92714645  0.95443758    -0.73600
O2494       O  0.84321316  0.92965474  0.89147705    -0.73600
O2495       O  0.85649816  0.91504473  0.93060992    -0.73700
O2496       O  0.79472531  0.94176048  0.91541622    -0.73700
O2497       O  0.82863734  0.95756540  0.92636855    -0.73700
O2498       O  0.88967101  0.93066276  0.94391044    -0.73600
O2499       O  0.87754031  0.94495146  0.90388838    -0.73600
O2500       O  0.84217336  0.94332379  0.96564473    -0.73700
Ni2501     Ni  0.82473736  0.92787348  0.92242156     1.25400
Ni2502     Ni  0.86066909  0.94472539  0.93520579     1.25400
C2503       C  0.82118969  0.93458641  0.97066255     0.88600
C2504       C  0.86661585  0.93751066  0.88743527     0.88500
C2505       C  0.88232600  0.91837412  0.94089647     0.88500
C2506       C  0.80106032  0.95409010  0.91892952     0.88700
O2507       O  0.53739347  0.81864754  0.01651693    -0.73600
O2508       O  0.01077638  0.81280587  0.95113542    -0.73600
O2509       O  0.00568573  0.83193129  0.98458714    -0.73700
O2510       O  0.54447014  0.79984583  0.98282549    -0.73700
O2511       O  0.00881798  0.78837528  0.99727490    -0.73700
O2512       O  0.96202333  0.82180822  0.99736842    -0.73600
O2513       O  0.96984021  0.80161266  0.96579000    -0.73600
O2514       O  0.99905496  0.80837704  0.02837063    -0.73700
Ni2515     Ni  0.02875379  0.81575597  0.98234533     1.25400
Ni2516     Ni  0.98339292  0.80461689  0.99758774     1.25400
C2517       C  0.02553386  0.81421440  0.03211230     0.88600
C2518       C  0.98443505  0.80655311  0.94808423     0.88500
C2519       C  0.97692514  0.83247742  0.99156056     0.88500
C2520       C  0.53296382  0.78917665  0.99165175     0.88700
O2521       O  0.93671210  0.56060230  0.80448828    -0.73600
O2522       O  0.96933632  0.55629372  0.74098205    -0.73600
O2523       O  0.92674839  0.54315835  0.76893473    -0.73700
O2524       O  0.97774598  0.57389274  0.77621618    -0.73700
O2525       O  0.51456324  0.56117157  0.78749303    -0.73700
O2526       O  0.96570307  0.53019049  0.78275159    -0.73600
O2527       O  0.50421523  0.54237707  0.75409697    -0.73600
O2528       O  0.97637559  0.54785639  0.81773868    -0.73700
Ni2529     Ni  0.95122004  0.55890187  0.77212020     1.25400
Ni2530     Ni  0.49000935  0.54492109  0.78580879     1.25400
C2531       C  0.95127268  0.55477222  0.82165060     0.88600
C2532       C  0.49074762  0.54811547  0.73654181     0.88500
C2533       C  0.93699047  0.53171483  0.77547861     0.88500
C2534       C  0.50269525  0.57242194  0.78086532     0.88700
O2535       O  0.65625875  0.68033446  0.79553286    -0.73600
O2536       O  0.62006045  0.68262182  0.73249266    -0.73600
O2537       O  0.65930239  0.69807801  0.75899883    -0.73700
O2538       O  0.61918330  0.66475806  0.76877685    -0.73700
O2539       O  0.57664279  0.67481366  0.78402922    -0.73700
O2540       O  0.61726626  0.70887362  0.77364280    -0.73600
O2541       O  0.57801489  0.69288437  0.74794676    -0.73600
O2542       O  0.61376644  0.69119734  0.80930326    -0.73700
Ni2543     Ni  0.64021219  0.68110070  0.76333629     1.25400
Ni2544     Ni  0.59486194  0.69232567  0.77908682     1.25400
C2545       C  0.64029433  0.68530909  0.81280907     0.88600
C2546       C  0.59255932  0.68815933  0.72999670     0.88500
C2547       C  0.64548961  0.70893704  0.76505086     0.88500
C2548       C  0.59227404  0.66410757  0.77900445     0.88700
O2549       O  0.65545267  0.56350994  0.51037433    -0.73600
O2550       O  0.62934329  0.55669218  0.57488939    -0.73600
O2551       O  0.66517525  0.54344855  0.54205524    -0.73700
O2552       O  0.62191833  0.57675371  0.54365582    -0.73700
O2553       O  0.57715567  0.56732008  0.53107105    -0.73700
O2554       O  0.62194116  0.53354290  0.52763954    -0.73600
O2555       O  0.58629899  0.54648685  0.56109650    -0.73600
O2556       O  0.61061149  0.55410100  0.49809089    -0.73700
Ni2557     Ni  0.64458863  0.56039484  0.54326539     1.25400
Ni2558     Ni  0.59745795  0.54995989  0.52911840     1.25400
C2559       C  0.63651315  0.56013497  0.49354893     0.88600
C2560       C  0.60281470  0.55069271  0.57848230     0.88500
C2561       C  0.65133776  0.53314444  0.53381230     0.88500
C2562       C  0.59281653  0.57768955  0.53752173     0.88700
O2563       O  0.92400956  0.67866016  0.50208683    -0.73600
O2564       O  0.94920149  0.68555472  0.56691043    -0.73600
O2565       O  0.91045904  0.69770282  0.53435811    -0.73700
O2566       O  0.96117582  0.66635875  0.53501908    -0.73700
O2567       O  0.50694795  0.68017555  0.52529957    -0.73700
O2568       O  0.95089615  0.70962066  0.52063300    -0.73600
O2569       O  0.48964406  0.69906266  0.55662082    -0.73600
O2570       O  0.96646080  0.68988042  0.48989921    -0.73700
Ni2571     Ni  0.93470277  0.68169708  0.53506339     1.25400
Ni2572     Ni  0.48046330  0.69603808  0.52418858     1.25400
C2573       C  0.94157146  0.68308410  0.48530081     0.88600
C2574       C  0.47498678  0.69312217  0.57327141     0.88500
C2575       C  0.92150773  0.70867014  0.52645508     0.88500
C2576       C  0.49559763  0.66886581  0.53173991     0.88700
O2577       O  0.79023357  0.42593140  0.53514125    -0.73600
O2578       O  0.82133511  0.42840263  0.47082329    -0.73600
O2579       O  0.82418183  0.41019163  0.50591507    -0.73700
O2580       O  0.78528412  0.44415192  0.50007716    -0.73700
O2581       O  0.82827092  0.45413535  0.51433003    -0.73700
O2582       O  0.86923752  0.41939884  0.51819171    -0.73600
O2583       O  0.86442749  0.43854373  0.48451502    -0.73600
O2584       O  0.83544220  0.43505922  0.54750233    -0.73700
Ni2585     Ni  0.80368245  0.42689450  0.50241634     1.25400
Ni2586     Ni  0.85092426  0.43718907  0.51644826     1.25400
C2587       C  0.80858008  0.42980120  0.55196085     0.88600
C2588       C  0.84888600  0.43353533  0.46727306     0.88500
C2589       C  0.85270801  0.40899027  0.51328041     0.88500
C2590       C  0.79911310  0.45467218  0.50751121     0.88700
O2591       O  0.01178095  0.30387144  0.51212549    -0.73600
O2592       O  0.98056079  0.30065694  0.44837601    -0.73600
O2593       O  0.97140782  0.31767545  0.48450053    -0.73700
O2594       O  0.52395772  0.29062677  0.47449696    -0.73700
O2595       O  0.98366481  0.27382422  0.48920287    -0.73700
O2596       O  0.93087098  0.30535274  0.49686962    -0.73600
O2597       O  0.94158271  0.28754499  0.46105332    -0.73600
O2598       O  0.97145681  0.29137966  0.52435036    -0.73700
Ni2599     Ni  0.99788439  0.30267469  0.47970081     1.25400
Ni2600     Ni  0.95539676  0.28901816  0.49317911     1.25400
C2601       C  0.99616216  0.29833220  0.52885873     0.88600
C2602       C  0.95556745  0.29371853  0.44431239     0.88500
C2603       C  0.94324877  0.31681002  0.49257687     0.88500
C2604       C  0.01251563  0.27547934  0.48251450     0.88700
O2605       O  0.54080729  0.42691414  0.24679897    -0.73600
O2606       O  0.99026201  0.43029907  0.30625707    -0.73600
O2607       O  0.98709025  0.41401705  0.26799634    -0.73700
O2608       O  0.54937787  0.44348945  0.28412538    -0.73700
O2609       O  0.99414307  0.45828056  0.26783943    -0.73700
O2610       O  0.94636558  0.42619520  0.25465378    -0.73600
O2611       O  0.95108703  0.44302278  0.29228424    -0.73600
O2612       O  0.98756855  0.44155315  0.23087959    -0.73700
Ni2613     Ni  0.01103606  0.42939952  0.27578057     1.25400
Ni2614     Ni  0.96832050  0.44274457  0.26109886     1.25400
C2615       C  0.01332216  0.43506549  0.22703599     0.88600
C2616       C  0.96384886  0.43660556  0.30938590     0.88500
C2617       C  0.95986268  0.41480700  0.25814457     0.88500
C2618       C  0.53922597  0.45510340  0.27834173     0.88700
O2619       O  0.79788778  0.31227646  0.21610335    -0.73600
O2620       O  0.82231584  0.30533054  0.28088281    -0.73600
O2621       O  0.83413611  0.32467705  0.24916250    -0.73700
O2622       O  0.78464106  0.29316016  0.24827796    -0.73700
O2623       O  0.82563708  0.28116295  0.23527867    -0.73700
O2624       O  0.87656065  0.31327885  0.23662237    -0.73600
O2625       O  0.86348818  0.29346380  0.26779825    -0.73600
O2626       O  0.84032647  0.30072909  0.20423453    -0.73700
Ni2627     Ni  0.80823755  0.30924479  0.24906477     1.25400
Ni2628     Ni  0.85299149  0.29671554  0.23560707     1.25400
C2629       C  0.81551821  0.30763834  0.19946708     0.88600
C2630       C  0.84755506  0.29839487  0.28492637     0.88500
C2631       C  0.86330988  0.32427112  0.24316456     0.88500
C2632       C  0.79620571  0.28203799  0.24115080     0.88700
O2633       O  0.65554924  0.05818001  0.90144364    -0.73600
O2634       O  0.62441752  0.05524272  0.96521231    -0.73600
O2635       O  0.65866932  0.03934403  0.93557269    -0.73700
O2636       O  0.62246710  0.07414276  0.93125670    -0.73700
O2637       O  0.57656679  0.06567774  0.91894648    -0.73700
O2638       O  0.61455790  0.03040293  0.92072276    -0.73600
O2639       O  0.58024826  0.04582012  0.95156745    -0.73600
O2640       O  0.60972827  0.05001139  0.88836725    -0.73700
Ni2641     Ni  0.64184305  0.05701346  0.93388684     1.25400
Ni2642     Ni  0.59362084  0.04765456  0.91947928     1.25400
C2643       C  0.63759270  0.05447333  0.88432375     0.88600
C2644       C  0.59693635  0.05012552  0.96883732     0.88500
C2645       C  0.64329702  0.02920598  0.92812183     0.88500
C2646       C  0.59366066  0.07578475  0.92465070     0.88700
O2647       O  0.93003781  0.17572767  0.94175031    -0.73600
O2648       O  0.95769895  0.18110906  0.00614830    -0.73600
O2649       O  0.91220114  0.19253261  0.97731289    -0.73700
O2650       O  0.97363400  0.16453518  0.97039297    -0.73700
O2651       O  0.50972874  0.17687925  0.95842231    -0.73700
O2652       O  0.94816497  0.20751123  0.96639493    -0.73600
O2653       O  0.49465900  0.19322448  0.99494360    -0.73600
O2654       O  0.96415838  0.19131524  0.93003404    -0.73700
Ni2655     Ni  0.94198118  0.17801826  0.97445817     1.25400
Ni2656     Ni  0.97998704  0.19388583  0.96119851     1.25400
C2657       C  0.94338053  0.18244755  0.92525921     0.88600
C2658       C  0.98197101  0.18854672  0.00999058     0.88500
C2659       C  0.91967908  0.20461771  0.97250886     0.88500
C2660       C  0.00073206  0.16708919  0.96138348     0.88700
O2661       O  0.93494307  0.06032362  0.19694287    -0.73600
O2662       O  0.96737327  0.05785121  0.13360706    -0.73600
O2663       O  0.92215236  0.04467639  0.15934072    -0.73700
O2664       O  0.97912742  0.07341743  0.17117193    -0.73700
O2665       O  0.51734554  0.05809884  0.18595342    -0.73700
O2666       O  0.95903626  0.03009922  0.17108916    -0.73600
O2667       O  0.50771202  0.04281058  0.14718071    -0.73600
O2668       O  0.97131528  0.04550930  0.20881818    -0.73700
Ni2669     Ni  0.94957043  0.05954074  0.16474885     1.25400
Ni2670     Ni  0.98901934  0.04399789  0.17784564     1.25400
C2671       C  0.94774707  0.05324154  0.21331961     0.88600
C2672       C  0.99205277  0.05061360  0.12954966     0.88500
C2673       C  0.93056187  0.03268808  0.16426251     0.88500
C2674       C  0.50704057  0.07000450  0.18241948     0.88700
O2675       O  0.64992171  0.17772951  0.23947623    -0.73600
O2676       O  0.62180465  0.18186324  0.17455642    -0.73600
O2677       O  0.65547039  0.19689875  0.20625343    -0.73700
O2678       O  0.61867933  0.16261175  0.20745789    -0.73700
O2679       O  0.57198890  0.17113525  0.21843146    -0.73700
O2680       O  0.61124714  0.20602592  0.22081479    -0.73600
O2681       O  0.57767171  0.19162600  0.18774125    -0.73600
O2682       O  0.60327597  0.18578361  0.25129371    -0.73700
Ni2683     Ni  0.63809124  0.17950427  0.20643334     1.25400
Ni2684     Ni  0.58939204  0.18900299  0.21992227     1.25400
C2685       C  0.63071485  0.18103663  0.25617165     0.88600
C2686       C  0.59429892  0.18712603  0.17061838     0.88500
C2687       C  0.64048923  0.20696652  0.21451792     0.88500
C2688       C  0.58955819  0.16107226  0.21280891     0.88700
C2689       C  0.53640064  0.13077350  0.20513468    -0.13500
C2690       C  0.55879041  0.12041726  0.20791834     0.16800
C2691       C  0.59043692  0.12348804  0.21326073     0.03100
C2692       C  0.59938837  0.13679371  0.21575896    -0.12000
C2693       C  0.57736846  0.14727398  0.21237910    -0.03100
C2694       C  0.54554490  0.14418738  0.20701190     0.02400
C2695       C  0.54920756  0.10653459  0.20331156     0.09200
N2696       N  0.61388906  0.11319321  0.21572920     0.65600
H2697       H  0.62389224  0.13891329  0.21988797     0.18500
N2698       N  0.52304648  0.15444688  0.20132429     0.76000
H2699       H  0.51223680  0.12844482  0.20035029     0.10000
C2700       C  0.52737582  0.10008004  0.21805045     0.03700
C2701       C  0.51543665  0.08762182  0.21157822    -0.05000
C2702       C  0.52508653  0.08151853  0.19053578    -0.23400
C2703       C  0.54802615  0.08764805  0.17627496     0.12900
C2704       C  0.56017534  0.10009787  0.18287028    -0.12600
N2705       N  0.51660351  0.10623106  0.23932475     0.64600
H2706       H  0.02780068  0.07817105  0.22263055     0.12500
N2707       N  0.55767155  0.08179064  0.15442971     0.61300
H2708       H  0.57677388  0.10506914  0.17141965     0.08600
O2709       O  0.00362324  0.15856680  0.21227431    -0.40200
O2710       O  0.52285590  0.15943976  0.18090146    -0.39400
O2711       O  0.63312923  0.11096481  0.19914895    -0.39400
O2712       O  0.61877245  0.10797578  0.23565487    -0.37100
O2713       O  0.53944260  0.08245303  0.13676982    -0.38000
O2714       O  0.58625419  0.07828861  0.15163377    -0.34100
O2715       O  0.02772749  0.10771756  0.25039595    -0.35600
O2716       O  0.53157917  0.10422733  0.25829696    -0.39800
C2717       C  0.99997458  0.18516927  0.07614459    -0.13500
C2718       C  0.52978295  0.18780643  0.07934560     0.16800
C2719       C  0.54583762  0.19036770  0.05811337     0.03100
C2720       C  0.52945693  0.18999895  0.03660683    -0.12000
C2721       C  0.49680955  0.18705632  0.03540995    -0.03100
C2722       C  0.98284187  0.18519228  0.05476966     0.02400
C2723       C  0.54709391  0.18799528  0.10243424     0.09200
N2724       N  0.57879373  0.19369272  0.05811552     0.65600
H2725       H  0.54262395  0.19196770  0.02067776     0.18500
N2726       N  0.94990523  0.18185585  0.05511730     0.76000
H2727       H  0.98804761  0.18218872  0.09206535     0.10000
C2728       C  0.53809253  0.19675107  0.12071228     0.03700
C2729       C  0.55453127  0.19659615  0.14226684    -0.05000
C2730       C  0.58012260  0.18773978  0.14639199    -0.23400
C2731       C  0.58922102  0.17897627  0.12799899     0.12900
C2732       C  0.57288863  0.17924239  0.10629069    -0.12600
N2733       N  0.51249104  0.20602429  0.11757043     0.64600
H2734       H  0.54694617  0.20341763  0.15592923     0.12500
N2735       N  0.61349258  0.16912986  0.13150180     0.61300
H2736       H  0.57975650  0.17228814  0.09264114     0.08600
O2737       O  0.92955175  0.19082104  0.05950454    -0.40200
O2738       O  0.94172746  0.16974695  0.05525586    -0.39400
O2739       O  0.59890510  0.18536282  0.05047758    -0.39400
O2740       O  0.58707506  0.20560301  0.06187405    -0.37100
O2741       O  0.60658955  0.15812697  0.14100292    -0.38000
O2742       O  0.63998947  0.17042660  0.12145015    -0.34100
O2743       O  0.98422395  0.20016350  0.12848126    -0.35600
O2744       O  0.00982312  0.21551848  0.10916229    -0.39800
C2745       C  0.55680963  0.04806095  0.08112163    -0.13500
C2746       C  0.53841858  0.05155823  0.06143323     0.16800
C2747       C  0.02150923  0.06398145  0.07080017     0.03100
C2748       C  0.00593438  0.06288445  0.09261907    -0.12000
C2749       C  0.00748454  0.05104029  0.10593380    -0.03100
C2750       C  0.54321067  0.04715598  0.10362379     0.02400
C2751       C  0.55332427  0.05139845  0.03768911     0.09200
N2752       N  0.01769511  0.07600951  0.05746152     0.65600
H2753       H  0.99254295  0.07134325  0.09914134     0.18500
N2754       N  0.56318151  0.04334473  0.12291774     0.76000
H2755       H  0.58169431  0.04574128  0.07893025     0.10000
C2756       C  0.57664062  0.06075803  0.03130648     0.03700
C2757       C  0.59151624  0.05988057  0.00921853    -0.05000
C2758       C  0.58341146  0.04978311  0.99307138    -0.23400
C2759       C  0.56049565  0.04023020  0.99977584     0.12900
C2760       C  0.54561270  0.04115623  0.02183857    -0.12600
N2761       N  0.58454922  0.07152797  0.04673658     0.64600
H2762       H  0.60861380  0.06739131  0.00440350     0.12500
N2763       N  0.04936691  0.03295005  0.98325187     0.61300
H2764       H  0.02710563  0.03665265  0.02592361     0.08600
O2765       O  0.58315895  0.05154622  0.13087955    -0.40200
O2766       O  0.56575763  0.03115042  0.12829232    -0.39400
O2767       O  0.00050684  0.07595673  0.03920992    -0.39400
O2768       O  0.02582505  0.08703409  0.06637949    -0.37100
O2769       O  0.56992229  0.01869275  0.98591588    -0.38000
O2770       O  0.02367076  0.03418132  0.97194272    -0.34100
O2771       O  0.61088104  0.07146097  0.05740252    -0.35600
O2772       O  0.56766085  0.08199004  0.04675414    -0.39800
C2773       C  0.53632232  0.13024305  0.96329164    -0.13500
C2774       C  0.54775428  0.12932586  0.94017223     0.16800
C2775       C  0.05020048  0.14386035  0.92411648     0.03100
C2776       C  0.03628309  0.15562094  0.93290780    -0.12000
C2777       C  0.52109670  0.15341518  0.95688329    -0.03100
C2778       C  0.52293186  0.14213610  0.97168232     0.02400
C2779       C  0.55934819  0.11617777  0.93183119     0.09200
N2780       N  0.06234952  0.14371828  0.90063263     0.65600
H2781       H  0.03493338  0.16433161  0.92169122     0.18500
N2782       N  0.51096942  0.14258172  0.99521534     0.76000
H2783       H  0.53718487  0.12159582  0.97468262     0.10000
C2784       C  0.59197952  0.11347625  0.92957297     0.03700
C2785       C  0.60235915  0.10035237  0.92569639    -0.05000
C2786       C  0.58073535  0.08966634  0.92440301    -0.23400
C2787       C  0.54787142  0.09257625  0.92516259     0.12900
C2788       C  0.53751633  0.10575778  0.92894229    -0.12600
N2789       N  0.61499907  0.12372685  0.93316477     0.64600
H2790       H  0.62763052  0.09847370  0.92489194     0.12500
N2791       N  0.02622859  0.08571401  0.91752686     0.61300
H2792       H  0.01462936  0.11130569  0.92454928     0.08600
O2793       O  0.52916953  0.14593327  0.01187382    -0.40200
O2794       O  0.48443803  0.13741305  0.99981209    -0.39400
O2795       O  0.04398494  0.14091133  0.88375530    -0.39400
O2796       O  0.08857552  0.14923694  0.89637020    -0.37100
O2797       O  0.51313529  0.07747497  0.94235154    -0.38000
O2798       O  0.01639819  0.08334728  0.89692611    -0.34100
O2799       O  0.62305952  0.12682755  0.95388457    -0.35600
O2800       O  0.63166560  0.12760996  0.91606776    -0.39800
C2801       C  0.68071209  0.23676752  0.24287584    -0.13500
C2802       C  0.70377267  0.23986838  0.22582176     0.16800
C2803       C  0.70383002  0.23271325  0.20439460     0.03100
C2804       C  0.68159496  0.22260035  0.20054490    -0.12000
C2805       C  0.65880016  0.21940741  0.21763151    -0.03100
C2806       C  0.65828507  0.22666664  0.23893050     0.02400
C2807       C  0.72784862  0.25039503  0.23080694     0.09200
N2808       N  0.72640258  0.23554137  0.18633048     0.65600
H2809       H  0.68258921  0.21700731  0.18428083     0.18500
N2810       N  0.63713318  0.22312380  0.25754213     0.76000
H2811       H  0.68085528  0.24183215  0.25964795     0.10000
C2812       C  0.71850350  0.26323812  0.23828451     0.03700
C2813       C  0.74133493  0.27303502  0.24240711    -0.05000
C2814       C  0.77397233  0.27052959  0.23891747    -0.23400
C2815       C  0.78351041  0.25752184  0.23211863     0.12900
C2816       C  0.76051202  0.24759123  0.22831676    -0.12600
N2817       N  0.68570719  0.26675671  0.24066542     0.64600
H2818       H  0.73305553  0.28283932  0.24754198     0.12500
N2819       N  0.81626856  0.25417028  0.22900842     0.61300
H2820       H  0.76821764  0.23768053  0.22342983     0.08600
O2821       O  0.64517135  0.21414845  0.27203165    -0.40200
O2822       O  0.61349943  0.23050797  0.26199094    -0.39400
O2823       O  0.74792211  0.22711685  0.18166722    -0.39400
O2824       O  0.72144576  0.24516875  0.17242856    -0.37100
O2825       O  0.83231665  0.24999562  0.24634513    -0.38000
O2826       O  0.82743876  0.25310125  0.20847527    -0.34100
O2827       O  0.67455722  0.26929040  0.26081343    -0.35600
O2828       O  0.66966736  0.26969166  0.22256101    -0.39800
C2829       C  0.94879281  0.37905107  0.23777960    -0.13500
C2830       C  0.91628130  0.37721512  0.24168495     0.16800
C2831       C  0.89753162  0.38823030  0.24898203     0.03100
C2832       C  0.91175389  0.40063289  0.25336509    -0.12000
C2833       C  0.94456756  0.40224187  0.25063899    -0.03100
C2834       C  0.96296588  0.39142567  0.24201370     0.02400
C2835       C  0.90349610  0.36341726  0.24145737     0.09200
N2836       N  0.86409236  0.38688882  0.25245331     0.65600
H2837       H  0.89734665  0.40884179  0.25967229     0.18500
N2838       N  0.99617282  0.39283359  0.23746561     0.76000
H2839       H  0.96350310  0.37073377  0.23240304     0.10000
C2840       C  0.90669898  0.35481460  0.22182714     0.03700
C2841       C  0.89552966  0.34162701  0.22309126    -0.05000
C2842       C  0.88093018  0.33693750  0.24364641    -0.23400
C2843       C  0.87877406  0.34539951  0.26343798     0.12900
C2844       C  0.89016891  0.35845065  0.26226673    -0.12600
N2845       N  0.91966978  0.35952277  0.20014509     0.64600
H2846       H  0.89668428  0.33532274  0.20765672     0.12500
N2847       N  0.86532769  0.34079905  0.28502539     0.61300
H2848       H  0.88887472  0.36468389  0.27777000     0.08600
O2849       O  0.51003420  0.39587367  0.21871119    -0.40200
O2850       O  0.52439164  0.38679615  0.25202686    -0.39400
O2851       O  0.85267519  0.38787325  0.27292696    -0.39400
O2852       O  0.84569045  0.38698135  0.23486870    -0.37100
O2853       O  0.88262894  0.33455459  0.29955239    -0.38000
O2854       O  0.83857046  0.34519140  0.29147742    -0.34100
O2855       O  0.94640994  0.35526820  0.19337939    -0.35600
O2856       O  0.90209502  0.36583804  0.18589778    -0.39800
C2857       C  0.86745722  0.30348292  0.35014982    -0.13500
C2858       C  0.89317015  0.29460704  0.35295599     0.16800
C2859       C  0.90131201  0.28607422  0.33415547     0.03100
C2860       C  0.88499663  0.28703371  0.31267077    -0.12000
C2861       C  0.86009657  0.29633868  0.30933313    -0.03100
C2862       C  0.85064843  0.30429982  0.32874218     0.02400
C2863       C  0.91075028  0.29421258  0.37576550     0.09200
N2864       N  0.92707450  0.27677307  0.33620985     0.65600
H2865       H  0.89257816  0.28068268  0.29834502     0.18500
N2866       N  0.82423970  0.31330244  0.32714683     0.76000
H2867       H  0.86022167  0.30971774  0.36471347     0.10000
C2868       C  0.92616801  0.30562791  0.38470226     0.03700
C2869       C  0.94158910  0.30511390  0.40664268    -0.05000
C2870       C  0.94163289  0.29338356  0.42023111    -0.23400
C2871       C  0.92638169  0.28192275  0.41118929     0.12900
C2872       C  0.91125740  0.28240403  0.38911529    -0.12600
N2873       N  0.92643478  0.31783166  0.37164272     0.64600
H2874       H  0.95283226  0.31401571  0.41332442     0.12500
N2875       N  0.92662715  0.26961717  0.42393868     0.61300
H2876       H  0.89943763  0.27360956  0.38258579     0.08600
O2877       O  0.82848674  0.32564911  0.33024181    -0.40200
O2878       O  0.79640931  0.30871382  0.32791878    -0.39400
O2879       O  0.92132991  0.26445798  0.33808937    -0.39400
O2880       O  0.95493748  0.28051298  0.33159299    -0.37100
O2881       O  0.90243189  0.26625378  0.43553612    -0.38000
O2882       O  0.94800024  0.26105421  0.41975542    -0.34100
O2883       O  0.90906508  0.32748448  0.37805575    -0.35600
O2884       O  0.94745532  0.31966601  0.35619402    -0.39800
C2885       C  0.86601093  0.42919212  0.40098042    -0.13500
C2886       C  0.89798737  0.43315793  0.39981381     0.16800
C2887       C  0.91321089  0.43726988  0.42071175     0.03100
C2888       C  0.89664253  0.43726181  0.44210791    -0.12000
C2889       C  0.86452875  0.43339458  0.44350631    -0.03100
C2890       C  0.84930963  0.42921000  0.42251224     0.02400
C2891       C  0.91469921  0.43358240  0.37659181     0.09200
N2892       N  0.94507615  0.44215056  0.42038969     0.65600
H2893       H  0.90915755  0.44051786  0.45771485     0.18500
N2894       N  0.81692151  0.42506128  0.42258330     0.76000
H2895       H  0.85394491  0.42607630  0.38508256     0.10000
C2896       C  0.94224989  0.42589216  0.37193010     0.03700
C2897       C  0.95842940  0.42738008  0.35040451    -0.05000
C2898       C  0.94721722  0.43612271  0.33276684    -0.23400
C2899       C  0.91914763  0.44361318  0.33744922     0.12900
C2900       C  0.90349878  0.44233786  0.35915703    -0.12600
N2901       N  0.95305692  0.41595873  0.38825981     0.64600
H2902       H  0.97920543  0.42126444  0.34718776     0.12500
N2903       N  0.90588968  0.45256311  0.32040276     0.61300
H2904       H  0.88248525  0.44830703  0.36246508     0.08600
O2905       O  0.81051269  0.41277243  0.42355117    -0.40200
O2906       O  0.79530968  0.43334732  0.41738450    -0.39400
O2907       O  0.95070562  0.45336502  0.41119263    -0.39400
O2908       O  0.96595949  0.43667931  0.43320831    -0.37100
O2909       O  0.91179078  0.46488654  0.32178011    -0.38000
O2910       O  0.88362189  0.44863047  0.30723305    -0.34100
O2911       O  0.93615763  0.40580726  0.39199209    -0.35600
O2912       O  0.98158214  0.41596700  0.39515383    -0.39800
C2913       C  0.90889947  0.37910985  0.51945549    -0.13500
C2914       C  0.88842248  0.36860910  0.51324743     0.16800
C2915       C  0.85590102  0.37131877  0.51015817     0.03100
C2916       C  0.84481653  0.38445510  0.51151783    -0.12000
C2917       C  0.86564583  0.39520119  0.51562339    -0.03100
C2918       C  0.89784273  0.39235053  0.52057451     0.02400
C2919       C  0.90167965  0.35517593  0.50800315     0.09200
N2920       N  0.83409705  0.36098574  0.50397001     0.65600
H2921       H  0.81988271  0.38622014  0.50826131     0.18500
N2922       N  0.91983172  0.40272533  0.52603248     0.76000
H2923       H  0.93369836  0.37707448  0.52271228     0.10000
C2924       C  0.92570984  0.35369028  0.49101378     0.03700
C2925       C  0.93756497  0.34103744  0.48571676    -0.05000
C2926       C  0.92629968  0.32955825  0.49718958    -0.23400
C2927       C  0.90193726  0.33096652  0.51407607     0.12900
C2928       C  0.88980933  0.34374348  0.51933326    -0.12600
N2929       N  0.93818747  0.36495573  0.47870461     0.64600
H2930       H  0.95602437  0.34026422  0.47258975     0.12500
N2931       N  0.89036773  0.31970743  0.52684456     0.61300
H2932       H  0.87161979  0.34476610  0.53258351     0.08600
O2933       O  0.94002841  0.40623122  0.51089193    -0.40200
O2934       O  0.92245738  0.40677778  0.54700702    -0.39400
O2935       O  0.81327122  0.35739643  0.51857267    -0.39400
O2936       O  0.83240430  0.35701426  0.48289658    -0.37100
O2937       O  0.90427999  0.31605394  0.54550589    -0.38000
O2938       O  0.86350538  0.31494651  0.52181965    -0.34100
O2939       O  0.96593655  0.36893011  0.48323121    -0.35600
O2940       O  0.92374672  0.36945668  0.46086156    -0.39800
C2941       C  0.69619764  0.50473153  0.50482902    -0.13500
C2942       C  0.71385407  0.49957077  0.52385079     0.16800
C2943       C  0.70977443  0.50523435  0.54641232     0.03100
C2944       C  0.68849610  0.51593614  0.54954412    -0.12000
C2945       C  0.67063051  0.52095062  0.53054247    -0.03100
C2946       C  0.67471689  0.51531852  0.50800950     0.02400
C2947       C  0.73625770  0.48828000  0.51957238     0.09200
N2948       N  0.72650330  0.50003940  0.56637926     0.65600
H2949       H  0.68590265  0.52033855  0.56681389     0.18500
N2950       N  0.65921098  0.52095372  0.48786430     0.76000
H2951       H  0.69970154  0.50074960  0.48734513     0.10000
C2952       C  0.72538327  0.47639482  0.50920823     0.03700
C2953       C  0.74672714  0.46607641  0.50414501    -0.05000
C2954       C  0.77931270  0.46705632  0.50967295    -0.23400
C2955       C  0.79040838  0.47912341  0.51965416     0.12900
C2956       C  0.76886155  0.48959466  0.52452657    -0.12600
N2957       N  0.69230546  0.47436897  0.50478199     0.64600
H2958       H  0.73718226  0.45700726  0.49671907     0.12500
N2959       N  0.82332529  0.48099150  0.52478028     0.61300
H2960       H  0.77764912  0.49881002  0.53188580     0.08600
O2961       O  0.67129871  0.53089974  0.47767107    -0.40200
O2962       O  0.63705171  0.51464851  0.47791172    -0.39400
O2963       O  0.74868635  0.50671075  0.57552959    -0.39400
O2964       O  0.71566153  0.49003819  0.57716124    -0.37100
O2965       O  0.84199655  0.48434172  0.50848823    -0.38000
O2966       O  0.83263333  0.48146100  0.54591858    -0.34100
O2967       O  0.68227182  0.47362042  0.48385182    -0.35600
O2968       O  0.67416759  0.47130161  0.52157422    -0.39800
C2969       C  0.54630117  0.60881077  0.52001385    -0.13500
C2970       C  0.55938318  0.61820684  0.53558918     0.16800
C2971       C  0.58145519  0.61401046  0.55268458     0.03100
C2972       C  0.59082160  0.60062162  0.55362549    -0.12000
C2973       C  0.57838580  0.59118043  0.53775603    -0.03100
C2974       C  0.55549710  0.59532539  0.52106426     0.02400
C2975       C  0.54696205  0.63201153  0.53555015     0.09200
N2976       N  0.59511693  0.62331412  0.56886381     0.65600
H2977       H  0.60831368  0.59766192  0.56655762     0.18500
N2978       N  0.54214165  0.58611201  0.50461285     0.76000
H2979       H  0.02739779  0.60997011  0.50265177     0.10000
C2980       C  0.55232745  0.64083474  0.51665450     0.03700
C2981       C  0.53677915  0.65327768  0.51607402    -0.05000
C2982       C  0.51597358  0.65696096  0.53423362    -0.23400
C2983       C  0.51214493  0.64838129  0.55375465     0.12900
C2984       C  0.52751533  0.63600651  0.55422573    -0.12600
N2985       N  0.57346957  0.63726681  0.49801714     0.64600
H2986       H  0.03899478  0.65864048  0.50191456     0.12500
N2987       N  0.49282433  0.65214400  0.57336336     0.61300
H2988       H  0.52358426  0.62935610  0.56888282     0.08600
O2989       O  0.05771361  0.58351425  0.48033733    -0.40200
O2990       O  0.51609441  0.58054153  0.50926163    -0.39400
O2991       O  0.58683425  0.62317429  0.59021656    -0.39400
O2992       O  0.61899950  0.63002088  0.56275542    -0.37100
O2993       O  0.46524964  0.64739704  0.57526799    -0.38000
O2994       O  0.50562268  0.65766826  0.59094957    -0.34100
O2995       O  0.06569876  0.63412041  0.47794761    -0.35600
O2996       O  0.60293671  0.63899580  0.50060021    -0.39800
C2997       C  0.49501093  0.68610635  0.63818840    -0.13500
C2998       C  0.52374079  0.69308005  0.64078678     0.16800
C2999       C  0.53466906  0.70079107  0.62176778     0.03100
C3000       C  0.51744111  0.70118426  0.60059814    -0.12000
C3001       C  0.48899753  0.69395737  0.59757853    -0.03100
C3002       C  0.97525521  0.68777306  0.61541183     0.02400
C3003       C  0.54198123  0.69213669  0.66338401     0.09200
N3004       N  0.56320532  0.70838637  0.62367955     0.65600
H3005       H  0.52697407  0.70700671  0.58628612     0.18500
N3006       N  0.94576864  0.68080688  0.61436530     0.76000
H3007       H  0.98134924  0.68352774  0.65231607     0.10000
C3008       C  0.52790289  0.69576046  0.68493318     0.03700
C3009       C  0.54481723  0.69427443  0.70604722    -0.05000
C3010       C  0.57623953  0.68928640  0.70653502    -0.23400
C3011       C  0.59054221  0.68576759  0.68483953     0.12900
C3012       C  0.57336920  0.68717545  0.66358853    -0.12600
N3013       N  0.49660708  0.70136233  0.68565363     0.64600
H3014       H  0.53307227  0.69717456  0.72216058     0.12500
N3015       N  0.62237657  0.68078151  0.68394177     0.61300
H3016       H  0.58443965  0.68421914  0.64725915     0.08600
O3017       O  0.92028733  0.68699777  0.61881973    -0.40200
O3018       O  0.94578622  0.66820246  0.61390246    -0.39400
O3019       O  0.58797357  0.70442837  0.61324776    -0.39400
O3020       O  0.56200268  0.72012440  0.63177701    -0.37100
O3021       O  0.62732466  0.66833312  0.68367089    -0.38000
O3022       O  0.64480232  0.68864171  0.67923186    -0.34100
O3023       O  0.97004535  0.70155706  0.69147520    -0.35600
O3024       O  0.49269597  0.71369520  0.68193814    -0.39800
C3025       C  0.54746313  0.53895177  0.68630380    -0.13500
C3026       C  0.54047718  0.54892858  0.66973822     0.16800
C3027       C  0.51573240  0.55808295  0.67454658     0.03100
C3028       C  0.49912142  0.55739043  0.69598337    -0.12000
C3029       C  0.50639884  0.54754251  0.71290195    -0.03100
C3030       C  0.53073149  0.53814319  0.70763595     0.02400
C3031       C  0.55816005  0.54913431  0.64703524     0.09200
N3032       N  0.50654549  0.56790106  0.65753017     0.65600
H3033       H  0.98719563  0.56683270  0.70138605     0.18500
N3034       N  0.53844539  0.52751677  0.72350254     0.76000
H3035       H  0.56591010  0.53170392  0.68259579     0.10000
C3036       C  0.58149799  0.55878971  0.64209059     0.03700
C3037       C  0.59697050  0.55878277  0.62012143    -0.05000
C3038       C  0.58961439  0.54923628  0.60275792    -0.23400
C3039       C  0.56692730  0.53929766  0.60819867     0.12900
C3040       C  0.55157762  0.53933822  0.63011567    -0.12600
N3041       N  0.59001374  0.56857087  0.65929507     0.64600
H3042       H  0.61411890  0.56648866  0.61644108     0.12500
N3043       N  0.55928605  0.52897719  0.59175212     0.61300
H3044       H  0.53413127  0.53175157  0.63384863     0.08600
O3045       O  0.56359553  0.52806960  0.73560176    -0.40200
O3046       O  0.52339972  0.51667116  0.72225580    -0.39400
O3047       O  0.99303522  0.56751558  0.64286389    -0.39400
O3048       O  0.51085206  0.58012449  0.66187788    -0.37100
O3049       O  0.57423186  0.51801808  0.59257347    -0.38000
O3050       O  0.02925746  0.53059168  0.58037671    -0.34100
O3051       O  0.61075078  0.56572653  0.67461378    -0.35600
O3052       O  0.58192469  0.58061118  0.65627453    -0.39800
C3053       C  0.52788774  0.60802952  0.77026735    -0.13500
C3054       C  0.54826733  0.61027107  0.78934532     0.16800
C3055       C  0.55645212  0.59952817  0.80436637     0.03100
C3056       C  0.54312179  0.58686800  0.80043870    -0.12000
C3057       C  0.52121594  0.58489033  0.78207172    -0.03100
C3058       C  0.51435856  0.59555656  0.76651631     0.02400
C3059       C  0.56080026  0.62396325  0.79213314     0.09200
N3060       N  0.57637298  0.60148550  0.82450444     0.65600
H3061       H  0.54830309  0.57885075  0.81262231     0.18500
N3062       N  0.02738195  0.58606758  0.74239729     0.76000
H3063       H  0.04785746  0.61042141  0.75032357     0.10000
C3064       C  0.59310280  0.62673815  0.78848207     0.03700
C3065       C  0.60272395  0.63995488  0.78542408    -0.05000
C3066       C  0.58063311  0.65060833  0.78539138    -0.23400
C3067       C  0.54868635  0.64789073  0.79088751     0.12900
C3068       C  0.53907337  0.63463452  0.79421013    -0.12600
N3069       N  0.61601659  0.61625244  0.78563632     0.64600
H3070       H  0.62753563  0.64176691  0.78195185     0.12500
N3071       N  0.52532314  0.65828597  0.79166314     0.61300
H3072       H  0.51420746  0.63258938  0.79703594     0.08600
O3073       O  0.05014165  0.58004126  0.73250735    -0.40200
O3074       O  0.00283171  0.58896032  0.73061194    -0.39400
O3075       O  0.56593587  0.60807042  0.84183626    -0.39400
O3076       O  0.60117635  0.59447053  0.82696732    -0.37100
O3077       O  0.51016838  0.66132287  0.77319522    -0.38000
O3078       O  0.51585841  0.66261986  0.81133157    -0.34100
O3079       O  0.61703194  0.60984802  0.76648482    -0.35600
O3080       O  0.63908873  0.61540513  0.79981447    -0.39800
C3081       C  0.70423766  0.00222904  0.94008863    -0.13500
C3082       C  0.70443660  0.99536514  0.91854193     0.16800
C3083       C  0.68101920  0.99842758  0.90152740     0.03100
C3084       C  0.65913454  0.00882649  0.90573201    -0.12000
C3085       C  0.66044344  0.01629039  0.92670232    -0.03100
C3086       C  0.68264496  0.01262914  0.94423090     0.02400
C3087       C  0.72921986  0.98497605  0.91468065     0.09200
N3088       N  0.68049001  0.99169024  0.87932668     0.65600
H3089       H  0.64261445  0.01162077  0.89202518     0.18500
N3090       N  0.68366030  0.01945257  0.96635257     0.76000
H3091       H  0.72115711  0.99960592  0.95364055     0.10000
C3092       C  0.76173313  0.98818319  0.91598665     0.03700
C3093       C  0.78469443  0.97801529  0.91615590    -0.05000
C3094       C  0.77599986  0.96448388  0.91536406    -0.23400
C3095       C  0.74333077  0.96130580  0.91309434     0.12900
C3096       C  0.72038978  0.97154699  0.91260212    -0.12600
N3097       N  0.77180637  0.00175738  0.91783354     0.64600
H3098       H  0.80937618  0.98076768  0.91765728     0.12500
N3099       N  0.73268548  0.94777160  0.91314986     0.61300
H3100       H  0.69554770  0.96895764  0.91200776     0.08600
O3101       O  0.70649699  0.02714187  0.97095906    -0.40200
O3102       O  0.66513687  0.01596348  0.98264206    -0.39400
O3103       O  0.65955884  0.98300301  0.87532874    -0.39400
O3104       O  0.69696688  0.99607506  0.86250935    -0.37100
O3105       O  0.72604667  0.94220308  0.93245437    -0.38000
O3106       O  0.72451172  0.94231171  0.89404303    -0.34100
O3107       O  0.78053676  0.00627686  0.93756590    -0.35600
O3108       O  0.77807245  0.00822100  0.89935784    -0.39800
C3109       C  0.92277631  0.89524563  0.98418486    -0.13500
C3110       C  0.92870789  0.88418952  0.96968690     0.16800
C3111       C  0.92294743  0.88508981  0.94530797     0.03100
C3112       C  0.90976553  0.89675398  0.93586491    -0.12000
C3113       C  0.90254208  0.90765867  0.95042477    -0.03100
C3114       C  0.90961511  0.90697531  0.97474146     0.02400
C3115       C  0.93938609  0.87146616  0.98012273     0.09200
N3116       N  0.92965718  0.87406717  0.93005681     0.65600
H3117       H  0.90411297  0.89713183  0.91729253     0.18500
N3118       N  0.90019088  0.91743423  0.99044200     0.76000
H3119       H  0.92697315  0.89454315  0.00292971     0.10000
C3120       C  0.97077135  0.86978168  0.98795057     0.03700
C3121       C  0.98173278  0.85702263  0.99379253    -0.05000
C3122       C  0.96174229  0.84582760  0.99198484    -0.23400
C3123       C  0.92929089  0.84781805  0.98688518     0.12900
C3124       C  0.91844232  0.86060367  0.98061747    -0.12600
N3125       N  0.99244659  0.88071843  0.98822138     0.64600
H3126       H  0.00649253  0.85577127  0.99834666     0.12500
N3127       N  0.90751089  0.83693155  0.98673129     0.61300
H3128       H  0.89399779  0.86198133  0.97533401     0.08600
O3129       O  0.91947472  0.92663855  0.99531184    -0.40200
O3130       O  0.87594879  0.91587801  0.00314955    -0.39400
O3131       O  0.90755070  0.86640012  0.92369365    -0.39400
O3132       O  0.95664114  0.87303027  0.92058799    -0.37100
O3133       O  0.89497667  0.83324637  0.00581190    -0.38000
O3134       O  0.89663170  0.83266904  0.96741907    -0.34100
O3135       O  0.00085930  0.88574751  0.00763883    -0.35600
O3136       O  0.00708646  0.88380404  0.96964851    -0.39800
C3137       C  0.72453396  0.76603209  0.77017782    -0.13500
C3138       C  0.73388520  0.75275408  0.76618907     0.16800
C3139       C  0.76610683  0.74997993  0.76126677     0.03100
C3140       C  0.78808921  0.76041691  0.75994822    -0.12000
C3141       C  0.77876387  0.77377458  0.76357260    -0.03100
C3142       C  0.74646662  0.77648936  0.76899525     0.02400
C3143       C  0.70935924  0.74208805  0.76554028     0.09200
N3144       N  0.77699398  0.73657090  0.75773902     0.65600
H3145       H  0.81250015  0.75801215  0.75591430     0.18500
N3146       N  0.73501545  0.78982995  0.77237528     0.76000
H3147       H  0.69988921  0.76836866  0.77343954     0.10000
C3148       C  0.68785820  0.74015468  0.78429206     0.03700
C3149       C  0.66510278  0.72998040  0.78295868    -0.05000
C3150       C  0.66384252  0.72143841  0.76337134    -0.23400
C3151       C  0.68444437  0.72371859  0.74423568     0.12900
C3152       C  0.70668207  0.73404808  0.74534860    -0.12600
N3153       N  0.69024574  0.74781755  0.80548068     0.64600
H3154       H  0.64999431  0.72816294  0.79793545     0.12500
N3155       N  0.68300793  0.71562026  0.72349292     0.61300
H3156       H  0.72195864  0.73574721  0.73044897     0.08600
O3157       O  0.73002296  0.79408469  0.79298157    -0.40200
O3158       O  0.72457713  0.79638018  0.75497302    -0.39400
O3159       O  0.78689894  0.73298745  0.73772193    -0.39400
O3160       O  0.78169988  0.72909518  0.77531655    -0.37100
O3161       O  0.66299449  0.71836398  0.70759843    -0.38000
O3162       O  0.70485750  0.70726228  0.71934499    -0.34100
O3163       O  0.66779570  0.75552196  0.81138362    -0.35600
O3164       O  0.71229944  0.74534500  0.81996724    -0.39800
C3165       C  0.95700598  0.81375489  0.88471670    -0.13500
C3166       C  0.93420595  0.80373559  0.88120248     0.16800
C3167       C  0.92961007  0.79423061  0.89918461     0.03100
C3168       C  0.94697178  0.79506568  0.92033959    -0.12000
C3169       C  0.96943164  0.80524039  0.92417657    -0.03100
C3170       C  0.97458770  0.81455294  0.90584043     0.02400
C3171       C  0.91595321  0.80318408  0.85852242     0.09200
N3172       N  0.90638327  0.78397183  0.89664106     0.65600
H3173       H  0.94236036  0.78783285  0.93400110     0.18500
N3174       N  0.49135173  0.82626854  0.91098945     0.76000
H3175       H  0.96112427  0.82101743  0.87102579     0.10000
C3176       C  0.89531472  0.81363012  0.85158673     0.03700
C3177       C  0.87920499  0.81302721  0.82985337    -0.05000
C3178       C  0.88349851  0.80219561  0.81431014    -0.23400
C3179       C  0.90432669  0.79171647  0.82133032     0.12900
C3180       C  0.92001568  0.79225857  0.84326084    -0.12600
N3181       N  0.89018365  0.82490174  0.86658442     0.64600
H3182       H  0.86368623  0.82120642  0.82499900     0.12500
N3183       N  0.90987045  0.78039118  0.80651248     0.61300
H3184       H  0.93589309  0.78421864  0.84819634     0.08600
O3185       O  0.48348843  0.83789433  0.91744224    -0.40200
O3186       O  0.51883972  0.82417825  0.90292683    -0.39400
O3187       O  0.91519932  0.77203661  0.89341966    -0.39400
O3188       O  0.87775523  0.78643745  0.90164555    -0.37100
O3189       O  0.93436874  0.78000555  0.79375663    -0.38000
O3190       O  0.89410378  0.76986380  0.80967462    -0.34100
O3191       O  0.90285739  0.83594145  0.86164650    -0.35600
O3192       O  0.86900094  0.82442626  0.88224174    -0.39800
C3193       C  0.95232388  0.93046426  0.79071955    -0.13500
C3194       C  0.92402841  0.93769843  0.79413817     0.16800
C3195       C  0.91102498  0.94493234  0.77510425     0.03100
C3196       C  0.92555423  0.94434381  0.75292216    -0.12000
C3197       C  0.95367547  0.93693177  0.74917934    -0.03100
C3198       C  0.96730448  0.93008910  0.76860755     0.02400
C3199       C  0.90875177  0.93773230  0.81777733     0.09200
N3200       N  0.88393143  0.95343824  0.77825850     0.65600
H3201       H  0.91483909  0.94991479  0.73862018     0.18500
N3202       N  0.99614136  0.92261626  0.76628458     0.76000
H3203       H  0.96276824  0.92501875  0.80529376     0.10000
C3204       C  0.87862458  0.93203341  0.82162187     0.03700
C3205       C  0.86515978  0.93225836  0.84425140    -0.05000
C3206       C  0.88136265  0.93791589  0.86351092    -0.23400
C3207       C  0.91166141  0.94359436  0.85950276     0.12900
C3208       C  0.92488413  0.94348229  0.83683275    -0.12600
N3209       N  0.86208996  0.92536587  0.80302299     0.64600
H3210       H  0.84218551  0.92775727  0.84678371     0.12500
N3211       N  0.93002361  0.94908568  0.87833509     0.61300
H3212       H  0.94803186  0.94780789  0.83413358     0.08600
O3213       O  0.99510247  0.91006568  0.76430960    -0.40200
O3214       O  0.02231646  0.92819231  0.77062422    -0.39400
O3215       O  0.38645117  0.96638202  0.78559197    -0.39400
O3216       O  0.85959538  0.95181603  0.76556808    -0.37100
O3217       O  0.93221755  0.96160175  0.88041847    -0.38000
O3218       O  0.94864346  0.94159877  0.88983709    -0.34100
O3219       O  0.87153129  0.91398409  0.79636408    -0.35600
O3220       O  0.83489643  0.92945058  0.79685622    -0.39800
C3221       C  0.90253070  0.88249397  0.69990130    -0.13500
C3222       C  0.92338460  0.87149814  0.69799853     0.16800
C3223       C  0.95274756  0.87319291  0.68665573     0.03100
C3224       C  0.96200465  0.88592589  0.67939618    -0.12000
C3225       C  0.94250196  0.89716772  0.68329781    -0.03100
C3226       C  0.91180279  0.89528558  0.69256226     0.02400
C3227       C  0.91467990  0.85850557  0.70876504     0.09200
N3228       N  0.97460462  0.86230590  0.68414830     0.65600
H3229       H  0.98541734  0.88714004  0.67203449     0.18500
N3230       N  0.89068888  0.90632564  0.69621969     0.76000
H3231       H  0.87949702  0.88122677  0.70782060     0.10000
C3232       C  0.90665002  0.85769937  0.73282749     0.03700
C3233       C  0.89595601  0.84564126  0.74223294    -0.05000
C3234       C  0.89367535  0.83415727  0.72818711    -0.23400
C3235       C  0.90312607  0.83474478  0.70437393     0.12900
C3236       C  0.91342966  0.84690271  0.69482712    -0.12600
N3237       N  0.90921377  0.86907095  0.74796306     0.64600
H3238       H  0.88877959  0.84531094  0.76047661     0.12500
N3239       N  0.89960305  0.82346549  0.68913927     0.61300
H3240       H  0.91915841  0.84740635  0.67633727     0.08600
O3241       O  0.88718592  0.91107172  0.71666373    -0.40200
O3242       O  0.87158370  0.90968824  0.68007739    -0.39400
O3243       O  0.47654767  0.85762717  0.67017268    -0.39400
O3244       O  0.99160650  0.85879752  0.70144061    -0.37100
O3245       O  0.87355622  0.82163996  0.67860134    -0.38000
O3246       O  0.92384682  0.81690858  0.68287832    -0.34100
O3247       O  0.88451760  0.87420336  0.75680788    -0.35600
O3248       O  0.93616676  0.87262399  0.75535155    -0.39800
C3249       C  0.90567563  0.69437204  0.37733537    -0.13500
C3250       C  0.91637631  0.68178585  0.38490075     0.16800
C3251       C  0.92060751  0.67156262  0.36796661     0.03100
C3252       C  0.91358659  0.67405655  0.34405236    -0.12000
C3253       C  0.90163091  0.68653285  0.33668190    -0.03100
C3254       C  0.89831139  0.69681379  0.35362521     0.02400
C3255       C  0.92251406  0.67982028  0.41061789     0.09200
N3256       N  0.92976381  0.65836349  0.37492810     0.65600
H3257       H  0.91577809  0.66598597  0.33146904     0.18500
N3258       N  0.88780946  0.70989651  0.34701509     0.76000
H3259       H  0.90285206  0.70237617  0.39000312     0.10000
C3260       C  0.95344001  0.67783387  0.41965154     0.03700
C3261       C  0.95872913  0.67818427  0.44412284    -0.05000
C3262       C  0.93373540  0.68057606  0.46004871    -0.23400
C3263       C  0.90262933  0.68195316  0.45104929     0.12900
C3264       C  0.89729657  0.68156401  0.42657086    -0.12600
N3265       N  0.98011556  0.67652827  0.40425743     0.64600
H3266       H  0.45939536  0.70259805  0.45312114     0.12500
N3267       N  0.87665954  0.68506449  0.46627013     0.61300
H3268       H  0.87355170  0.68324623  0.41992924     0.08600
O3269       O  0.90786068  0.71843351  0.34044926    -0.40200
O3270       O  0.85978630  0.71357454  0.35163751    -0.39400
O3271       O  0.90967853  0.65094372  0.38482436    -0.39400
O3272       O  0.95489871  0.65324386  0.36676378    -0.37100
O3273       O  0.86966832  0.69713446  0.47025752    -0.38000
O3274       O  0.85724603  0.67603839  0.47175305    -0.34100
O3275       O  0.42584400  0.71211350  0.39976396    -0.35600
O3276       O  0.99660194  0.66595468  0.40466842    -0.39800
C3277       C  0.67936826  0.56680765  0.43531524    -0.13500
C3278       C  0.65475339  0.56445307  0.41900426     0.16800
C3279       C  0.62398582  0.56193921  0.42747098     0.03100
C3280       C  0.61851720  0.56149447  0.45178927    -0.12000
C3281       C  0.64346969  0.56294341  0.46824495    -0.03100
C3282       C  0.67402497  0.56601897  0.45973669     0.02400
C3283       C  0.66279055  0.56274834  0.39365130     0.09200
N3284       N  0.59868174  0.55844132  0.41179681     0.65600
H3285       H  0.59491331  0.55922774  0.45767128     0.18500
N3286       N  0.70036105  0.56749344  0.47541263     0.76000
H3287       H  0.70300954  0.56862005  0.42906675     0.10000
C3288       C  0.64970016  0.57074890  0.37551670     0.03700
C3289       C  0.65840907  0.56839596  0.35192102    -0.05000
C3290       C  0.68070004  0.55840895  0.34598783    -0.23400
C3291       C  0.69316407  0.55026767  0.36436866     0.12900
C3292       C  0.68383743  0.55246679  0.38766521    -0.12600
N3293       N  0.62917905  0.58176595  0.38088922     0.64600
H3294       H  0.64877183  0.57490757  0.33821455     0.12500
N3295       N  0.71522851  0.53963248  0.35995749     0.61300
H3296       H  0.69362735  0.54606088  0.40150375     0.08600
O3297       O  0.70938870  0.57904310  0.48118753    -0.40200
O3298       O  0.71796873  0.55754789  0.47980414    -0.39400
O3299       O  0.59925968  0.54721906  0.40163361    -0.39400
O3300       O  0.57311375  0.56508853  0.41214411    -0.37100
O3301       O  0.74428783  0.54235425  0.35767396    -0.38000
O3302       O  0.70762895  0.52789128  0.36563479    -0.34100
O3303       O  0.64073789  0.59223526  0.38976810    -0.35600
O3304       O  0.60133853  0.58206660  0.37260057    -0.39800
C3305       C  0.65614992  0.49868208  0.28885533    -0.13500
C3306       C  0.63043807  0.49809554  0.27306254     0.16800
C3307       C  0.62646020  0.50837490  0.25638055     0.03100
C3308       C  0.64733627  0.51918532  0.25621027    -0.12000
C3309       C  0.67247962  0.52008190  0.27252106    -0.03100
C3310       C  0.67725914  0.50949556  0.28861818     0.02400
C3311       C  0.60712836  0.48706314  0.27498966     0.09200
N3312       N  0.60104419  0.50807580  0.23964252     0.65600
H3313       H  0.64327659  0.52709844  0.24362339     0.18500
N3314       N  0.70170621  0.51001983  0.30607958     0.76000
H3315       H  0.65922119  0.49096840  0.30193104     0.10000
C3316       C  0.61682066  0.47360178  0.27361623     0.03700
C3317       C  0.59439175  0.46343312  0.27573719    -0.05000
C3318       C  0.56196997  0.46636039  0.27904244    -0.23400
C3319       C  0.55234378  0.47983411  0.28106536     0.12900
C3320       C  0.57490984  0.49004504  0.27908050    -0.12600
N3321       N  0.64917485  0.47008228  0.26902356     0.64600
H3322       H  0.60231435  0.45321354  0.27383167     0.12500
N3323       N  0.52011894  0.48330221  0.28616806     0.61300
H3324       H  0.56735548  0.50029177  0.28110326     0.08600
O3325       O  0.72952904  0.50636556  0.30080018    -0.40200
O3326       O  0.69415458  0.51114049  0.32748446    -0.39400
O3327       O  0.57762042  0.51587856  0.24210166    -0.39400
O3328       O  0.60470169  0.50190021  0.22044076    -0.37100
O3329       O  0.98768115  0.49033304  0.26288872    -0.38000
O3330       O  0.51037514  0.48275473  0.30715198    -0.34100
O3331       O  0.66565949  0.46461616  0.28497129    -0.35600
O3332       O  0.65933999  0.47022727  0.24812764    -0.39800
C3333       C  0.74372027  0.61687174  0.28964833    -0.13500
C3334       C  0.77640579  0.61874845  0.28725436     0.16800
C3335       C  0.79682878  0.60753184  0.28617907     0.03100
C3336       C  0.78408969  0.59463021  0.28635848    -0.12000
C3337       C  0.75117635  0.59271461  0.28779212    -0.03100
C3338       C  0.73097099  0.60401196  0.29009715     0.02400
C3339       C  0.78838773  0.63248149  0.28431937     0.09200
N3340       N  0.83053110  0.60908549  0.28518407     0.65600
H3341       H  0.79991888  0.58613450  0.28487146     0.18500
N3342       N  0.69746724  0.60262968  0.29321242     0.76000
H3343       H  0.72799802  0.62542956  0.29076173     0.10000
C3344       C  0.79996741  0.63678644  0.26237932     0.03700
C3345       C  0.81273113  0.64956200  0.26025090    -0.05000
C3346       C  0.81340310  0.65834972  0.27952638    -0.23400
C3347       C  0.80020916  0.65434497  0.30114900     0.12900
C3348       C  0.78783153  0.64141037  0.30343483    -0.12600
N3349       N  0.79825917  0.62840372  0.24198809     0.64600
H3350       H  0.82243594  0.65261008  0.24350214     0.12500
N3351       N  0.80121504  0.66291145  0.32127334     0.61300
H3352       H  0.77859637  0.63821025  0.32022726     0.08600
O3353       O  0.67881985  0.60568409  0.27659326    -0.40200
O3354       O  0.68650075  0.60087853  0.31364592    -0.39400
O3355       O  0.84548233  0.61220956  0.30366543    -0.39400
O3356       O  0.84569027  0.60463599  0.26766955    -0.37100
O3357       O  0.82465704  0.66234491  0.33514828    -0.38000
O3358       O  0.77672372  0.66942266  0.32713873    -0.34100
O3359       O  0.77188362  0.62681358  0.23177941    -0.35600
O3360       O  0.82345215  0.62486787  0.23165453    -0.39800
C3361       C  0.66719497  0.67185055  0.87232438    -0.13500
C3362       C  0.66320391  0.68324792  0.88653348     0.16800
C3363       C  0.65409725  0.69542350  0.87595462     0.03100
C3364       C  0.64778964  0.69587711  0.85174052    -0.12000
C3365       C  0.65143541  0.68448897  0.83749407    -0.03100
C3366       C  0.66141910  0.67238865  0.84793017     0.02400
C3367       C  0.67053444  0.68250815  0.91208948     0.09200
N3368       N  0.65258591  0.70753674  0.88933933     0.65600
H3369       H  0.64028956  0.70523577  0.84393538     0.18500
N3370       N  0.66395073  0.66041996  0.83431761     0.76000
H3371       H  0.67444604  0.66249508  0.88025011     0.10000
C3372       C  0.64717410  0.68457493  0.92957462     0.03700
C3373       C  0.65602555  0.68504537  0.95343750    -0.05000
C3374       C  0.68792499  0.68351806  0.96022239    -0.23400
C3375       C  0.71099466  0.68093698  0.94269425     0.12900
C3376       C  0.70213598  0.68044981  0.91893565    -0.12600
N3377       N  0.61439539  0.68610166  0.92344739     0.64600
H3378       H  0.63806383  0.68696297  0.96658045     0.12500
N3379       N  0.74358459  0.67870458  0.94869646     0.61300
H3380       H  0.72015033  0.67876994  0.90572059     0.08600
O3381       O  0.64050235  0.65266265  0.83292799    -0.40200
O3382       O  0.69091254  0.65642778  0.82756156    -0.39400
O3383       O  0.67788972  0.71258061  0.89720912    -0.39400
O3384       O  0.62734661  0.71440746  0.88942685    -0.37100
O3385       O  0.75323419  0.66696924  0.95279784    -0.38000
O3386       O  0.76353448  0.68787546  0.94543837    -0.34100
O3387       O  0.59828241  0.67585704  0.91866062    -0.35600
O3388       O  0.60021238  0.69693017  0.92809810    -0.39800
C3389       C  0.64791092  0.74360602  0.99643183    -0.13500
C3390       C  0.62367478  0.74666225  0.01265084     0.16800
C3391       C  0.62158319  0.73907805  0.03351554     0.03100
C3392       C  0.64291178  0.72851931  0.03756043    -0.12000
C3393       C  0.66684194  0.72533157  0.02123722    -0.03100
C3394       C  0.66939906  0.73305859  0.00055066     0.02400
C3395       C  0.60017953  0.75743553  0.00703529     0.09200
N3396       N  0.59803816  0.74200965  0.05089528     0.65600
H3397       H  0.64050328  0.72268263  0.05342261     0.18500
N3398       N  0.69176062  0.72961467  0.98260323     0.76000
H3399       H  0.64939252  0.74906578  0.98011907     0.10000
C3400       C  0.61026111  0.77035084  0.00089488     0.03700
C3401       C  0.58793800  0.78016334  0.99477809    -0.05000
C3402       C  0.55503970  0.77762622  0.99529466    -0.23400
C3403       C  0.54487278  0.76467032  0.00148175     0.12900
C3404       C  0.56740570  0.75468129  0.00695121    -0.12600
N3405       N  0.64305635  0.77392334  0.00214297     0.64600
H3406       H  0.59657152  0.79002145  0.99074708     0.12500
N3407       N  0.51190011  0.76142828  0.00222842     0.61300
H3408       H  0.55927866  0.74477368  0.01105838     0.08600
O3409       O  0.71625164  0.73664137  0.97986139    -0.40200
O3410       O  0.68427483  0.72118586  0.96702379    -0.39400
O3411       O  0.57555848  0.73394455  0.05419302    -0.39400
O3412       O  0.60294247  0.75119058  0.06569021    -0.37100
O3413       O  0.00385117  0.75690358  0.98141105    -0.38000
O3414       O  0.49780638  0.76098230  0.02180792    -0.34100
O3415       O  0.65771991  0.77702348  0.98358709    -0.35600
O3416       O  0.65559886  0.77621926  0.02194748    -0.39800
C3417       C  0.78553019  0.70291235  0.12242780    -0.13500
C3418       C  0.77510724  0.69375321  0.13933138     0.16800
C3419       C  0.74885065  0.68560367  0.13407642     0.03100
C3420       C  0.73417926  0.68639708  0.11182933    -0.12000
C3421       C  0.74520076  0.69527781  0.09447756    -0.03100
C3422       C  0.77085171  0.70379454  0.10024811     0.02400
C3423       C  0.79155989  0.69323217  0.16252953     0.09200
N3424       N  0.73678526  0.67647702  0.15114932     0.65600
H3425       H  0.71470323  0.67976704  0.10795464     0.18500
N3426       N  0.78205181  0.71357768  0.08398067     0.76000
H3427       H  0.80519939  0.70941579  0.12648175     0.10000
C3428       C  0.81575216  0.68381845  0.16727717     0.03700
C3429       C  0.83217908  0.68416541  0.18889146    -0.05000
C3430       C  0.82506573  0.69388070  0.20610373    -0.23400
C3431       C  0.80077399  0.70336579  0.20106927     0.12900
C3432       C  0.78437494  0.70293308  0.17950949    -0.12600
N3433       N  0.82441624  0.67403622  0.15006821     0.64600
H3434       H  0.85037976  0.67675798  0.19221210     0.12500
N3435       N  0.79296931  0.71379921  0.21729139     0.61300
H3436       H  0.76624303  0.71033173  0.17586787     0.08600
O3437       O  0.80818158  0.71173599  0.07359375    -0.40200
O3438       O  0.76915305  0.72499115  0.08350088    -0.39400
O3439       O  0.71461227  0.68017415  0.16462238    -0.39400
O3440       O  0.74345730  0.66420486  0.14947100    -0.37100
O3441       O  0.80698501  0.72487626  0.21583442    -0.38000
O3442       O  0.76828132  0.71287306  0.22973157    -0.34100
O3443       O  0.84534240  0.67675385  0.13496501    -0.35600
O3444       O  0.81533116  0.66212199  0.15243055    -0.39800
C3445       C  0.93437203  0.56337256  0.93659204    -0.13500
C3446       C  0.91098128  0.56087851  0.91943543     0.16800
C3447       C  0.87970448  0.55830459  0.92686871     0.03100
C3448       C  0.87242059  0.55817819  0.95100895    -0.12000
C3449       C  0.89595412  0.56019535  0.96834513    -0.03100
C3450       C  0.92721355  0.56300782  0.96082310     0.02400
C3451       C  0.92039904  0.55957453  0.89417845     0.09200
N3452       N  0.85562407  0.55467430  0.91027824     0.65600
H3453       H  0.84838175  0.55592888  0.95619022     0.18500
N3454       N  0.95248938  0.56452527  0.97743168     0.76000
H3455       H  0.95855970  0.56511733  0.93116168     0.10000
C3456       C  0.91020637  0.56862668  0.87658541     0.03700
C3457       C  0.91965256  0.56676302  0.85297521    -0.05000
C3458       C  0.93952832  0.55601608  0.84646128    -0.23400
C3459       C  0.94902270  0.54682518  0.86419163     0.12900
C3460       C  0.93960443  0.54872645  0.88764086    -0.12600
N3461       N  0.89155619  0.58010748  0.88256361     0.64600
H3462       H  0.91222254  0.57397343  0.83990006     0.12500
N3463       N  0.48829478  0.54903400  0.86189042     0.61300
H3464       H  0.94706955  0.54157403  0.90082699     0.08600
O3465       O  0.96296346  0.57603705  0.98192901    -0.40200
O3466       O  0.96815966  0.55437843  0.98391976    -0.39400
O3467       O  0.85639872  0.54321639  0.90097860    -0.39400
O3468       O  0.83062555  0.56164196  0.90870338    -0.37100
O3469       O  0.51074223  0.55732625  0.86147115    -0.38000
O3470       O  0.49443953  0.53674019  0.86413558    -0.34100
O3471       O  0.90516293  0.59040031  0.89040289    -0.35600
O3472       O  0.86318834  0.58095639  0.87546865    -0.39800
C3473       C  0.80257283  0.54112273  0.13298921    -0.13500
C3474       C  0.80322078  0.55288273  0.14662415     0.16800
C3475       C  0.82235564  0.56356930  0.13870456     0.03100
C3476       C  0.83999899  0.56235962  0.11776113    -0.12000
C3477       C  0.83812280  0.55087129  0.10358900    -0.03100
C3478       C  0.81944373  0.54010104  0.11162618     0.02400
C3479       C  0.78585864  0.55353695  0.16980857     0.09200
N3480       N  0.82280247  0.57605282  0.15100716     0.65600
H3481       H  0.85367989  0.57077482  0.11187255     0.18500
N3482       N  0.81824154  0.52783653  0.09873971     0.76000
H3483       H  0.78947430  0.53261320  0.13908187     0.10000
C3484       C  0.75350051  0.54993404  0.17222131     0.03700
C3485       C  0.73839533  0.55075816  0.19435194    -0.05000
C3486       C  0.75503956  0.55488831  0.21452814    -0.23400
C3487       C  0.78736974  0.55835470  0.21218365     0.12900
C3488       C  0.80237884  0.55759787  0.19014460    -0.12600
N3489       N  0.73546916  0.54546727  0.15239702     0.64600
H3490       H  0.71378168  0.54793415  0.19582179     0.12500
N3491       N  0.80514423  0.56312352  0.23194091     0.61300
H3492       H  0.82718390  0.56011807  0.18901173     0.08600
O3493       O  0.79268461  0.52432206  0.08893558    -0.40200
O3494       O  0.84101501  0.51962148  0.10027437    -0.39400
O3495       O  0.84878759  0.58071090  0.15837935    -0.39400
O3496       O  0.79813571  0.58327886  0.15147656    -0.37100
O3497       O  0.82410907  0.55535251  0.24250725    -0.38000
O3498       O  0.80611971  0.57550610  0.23608335    -0.34100
O3499       O  0.72736358  0.53336591  0.15109619    -0.35600
O3500       O  0.72251690  0.55393637  0.13894316    -0.39800
C3501       C  0.80037975  0.60866743  0.05188635    -0.13500
C3502       C  0.78790102  0.61298757  0.03031892     0.16800
C3503       C  0.78812352  0.60429299  0.01078725     0.03100
C3504       C  0.80169243  0.59149818  0.01292953    -0.12000
C3505       C  0.81556448  0.58742092  0.03427708    -0.03100
C3506       C  0.81437755  0.59602866  0.05394978     0.02400
C3507       C  0.77545723  0.62675898  0.02865874     0.09200
N3508       N  0.77631264  0.60861129  0.98841419     0.65600
H3509       H  0.80301255  0.58508269  0.99764499     0.18500
N3510       N  0.82734018  0.59206003  0.07618029     0.76000
H3511       H  0.79988905  0.61524408  0.06698930     0.10000
C3512       C  0.74312498  0.62949032  0.03224066     0.03700
C3513       C  0.73228750  0.64270623  0.03227792    -0.05000
C3514       C  0.75329365  0.65347953  0.02902985    -0.23400
C3515       C  0.78590378  0.65065694  0.02561692     0.12900
C3516       C  0.79665192  0.63735107  0.02539718    -0.12600
N3517       N  0.72114917  0.61895034  0.03658212     0.64600
H3518       H  0.70722712  0.64446824  0.03500993     0.12500
N3519       N  0.80858582  0.66111160  0.02314897     0.61300
H3520       H  0.82167742  0.63528007  0.02312227     0.08600
O3521       O  0.80895051  0.58786692  0.09201965    -0.40200
O3522       O  0.85523268  0.59545572  0.08161149    -0.39400
O3523       O  0.79460851  0.61449800  0.97428989    -0.39400
O3524       O  0.74946720  0.60472729  0.98136242    -0.37100
O3525       O  0.82290915  0.66543773  0.04113836    -0.38000
O3526       O  0.81827114  0.66429240  0.00290414    -0.34100
O3527       O  0.71521070  0.61556174  0.05752041    -0.35600
O3528       O  0.70353990  0.61486567  0.02009428    -0.39800
C3529       C  0.88949315  0.17141148  0.81920062    -0.13500
C3530       C  0.92088941  0.17382981  0.82586794     0.16800
C3531       C  0.94439648  0.17501669  0.80834780     0.03100
C3532       C  0.93580706  0.17451690  0.78439559    -0.12000
C3533       C  0.90391827  0.17283709  0.77764263    -0.03100
C3534       C  0.88085281  0.17081991  0.79542726     0.02400
C3535       C  0.92774138  0.17596643  0.85118746     0.09200
N3536       N  0.97696790  0.17684638  0.81461113     0.65600
H3537       H  0.95384900  0.17598016  0.77117523     0.18500
N3538       N  0.84837313  0.16824006  0.78971704     0.76000
H3539       H  0.87143706  0.17029892  0.83254036     0.10000
C3540       C  0.92934008  0.18898739  0.86049770     0.03700
C3541       C  0.93384136  0.19087153  0.88472713    -0.05000
C3542       C  0.93588072  0.17992758  0.90015275    -0.23400
C3543       C  0.93375547  0.16686574  0.89086116     0.12900
C3544       C  0.92971071  0.16498321  0.86649578    -0.12600
N3545       N  0.92502191  0.20039716  0.84566436     0.64600
H3546       H  0.93533289  0.20092425  0.89155327     0.12500
N3547       N  0.93724958  0.15542803  0.90572673     0.61300
H3548       H  0.92811691  0.15496927  0.85951513     0.08600
O3549       O  0.83962789  0.15638913  0.78595516    -0.40200
O3550       O  0.82772870  0.17726629  0.79280054    -0.39400
O3551       O  0.99505197  0.16678560  0.81624627    -0.39400
O3552       O  0.98888115  0.18837197  0.81375401    -0.37100
O3553       O  0.91292143  0.14919751  0.91240654    -0.38000
O3554       O  0.96438122  0.15026327  0.90871245    -0.34100
O3555       O  0.42659627  0.20398350  0.83408430    -0.35600
O3556       O  0.94854646  0.20754750  0.84043839    -0.39800
C3557       C  0.66041064  0.06365164  0.77001821    -0.13500
C3558       C  0.67995456  0.05773494  0.78722419     0.16800
C3559       C  0.70674208  0.05034468  0.78007247     0.03100
C3560       C  0.71295057  0.04855818  0.75606073    -0.12000
C3561       C  0.69275838  0.05395812  0.73858192    -0.03100
C3562       C  0.66672121  0.06195273  0.74586706     0.02400
C3563       C  0.66937711  0.05753931  0.81212293     0.09200
N3564       N  0.72676689  0.04383506  0.79695676     0.65600
H3565       H  0.73339544  0.04260847  0.75119521     0.18500
N3566       N  0.64586906  0.06809363  0.72913553     0.76000
H3567       H  0.63964870  0.06926975  0.77535960     0.10000
C3568       C  0.68408873  0.06511600  0.82998889     0.03700
C3569       C  0.67384065  0.06390969  0.85347705    -0.05000
C3570       C  0.64885343  0.05527017  0.85948038    -0.23400
C3571       C  0.63449424  0.04762770  0.84136633     0.12900
C3572       C  0.64472317  0.04888866  0.81806541    -0.12600
N3573       N  0.70874057  0.07434237  0.82447524     0.64600
H3574       H  0.68505176  0.06992130  0.86691556     0.12500
N3575       N  0.61028638  0.03809827  0.84634603     0.61300
H3576       H  0.63373950  0.04284780  0.80453983     0.08600
O3577       O  0.65020608  0.08011227  0.72331382    -0.40200
O3578       O  0.62005590  0.06248275  0.72384783    -0.39400
O3579       O  0.71965192  0.03230202  0.80411578    -0.39400
O3580       O  0.75439375  0.04821103  0.80058918    -0.37100
O3581       O  0.58174337  0.04081381  0.84136009    -0.38000
O3582       O  0.61801303  0.02623820  0.85141780    -0.34100
O3583       O  0.70148130  0.08608463  0.81830422    -0.35600
O3584       O  0.73699047  0.07171031  0.83041831    -0.39800
C3585       C  0.63389316  0.99452599  0.66863284    -0.13500
C3586       C  0.60198478  0.99874150  0.66843862     0.16800
C3587       C  0.59517998  0.01249014  0.66617395     0.03100
C3588       C  0.62012247  0.02167769  0.66435007    -0.12000
C3589       C  0.65220378  0.01756844  0.66558635    -0.03100
C3590       C  0.65887027  0.00374245  0.66740414     0.02400
C3591       C  0.57661389  0.98865161  0.67235157     0.09200
N3592       N  0.56328820  0.01742880  0.66771206     0.65600
H3593       H  0.61417957  0.03217638  0.66331285     0.18500
N3594       N  0.69077260  0.99883392  0.66833073     0.76000
H3595       H  0.63946145  0.98401204  0.67031571     0.10000
C3596       C  0.55231848  0.98611186  0.65570900     0.03700
C3597       C  0.53007790  0.97594898  0.65997221    -0.05000
C3598       C  0.53226298  0.96792086  0.68022368    -0.23400
C3599       C  0.55592660  0.97079633  0.69713734     0.12900
C3600       C  0.57758449  0.98110773  0.69316443    -0.12600
N3601       N  0.55155347  0.99288604  0.63353104     0.64600
H3602       H  0.51262117  0.97367939  0.64660175     0.12500
N3603       N  0.55845778  0.96325597  0.71844848     0.61300
H3604       H  0.59569359  0.98306519  0.70622258     0.08600
O3605       O  0.70338781  0.99413861  0.64993210    -0.40200
O3606       O  0.70366707  0.99668903  0.68808023    -0.39400
O3607       O  0.54906134  0.01708114  0.68724968    -0.39400
O3608       O  0.55205146  0.02451962  0.65126313    -0.37100
O3609       O  0.07934199  0.95459947  0.72147463    -0.38000
O3610       O  0.54395376  0.96721852  0.73660993    -0.34100
O3611       O  0.57240616  0.99019118  0.61828423    -0.35600
O3612       O  0.52685817  0.99921376  0.62741194    -0.39800
C3613       C  0.84896925  0.11886562  0.68726022    -0.13500
C3614       C  0.81927870  0.11552975  0.69637979     0.16800
C3615       C  0.80225000  0.12497937  0.70976056     0.03100
C3616       C  0.81473514  0.13777796  0.71332840    -0.12000
C3617       C  0.84431495  0.14133211  0.70380647    -0.03100
C3618       C  0.86172714  0.13157099  0.69094255     0.02400
C3619       C  0.80572978  0.10235748  0.69065261     0.09200
N3620       N  0.77184472  0.12181756  0.71929253     0.65600
H3621       H  0.80107571  0.14495428  0.72333383     0.18500
N3622       N  0.89206692  0.13440514  0.68093635     0.76000
H3623       H  0.86209762  0.11162847  0.67698757     0.10000
C3624       C  0.79148773  0.10013507  0.66858059     0.03700
C3625       C  0.77729790  0.08785350  0.66376496    -0.05000
C3626       C  0.77762829  0.07753825  0.68052519    -0.23400
C3627       C  0.79358500  0.07949035  0.70214167     0.12900
C3628       C  0.80721163  0.09194687  0.70717286    -0.12600
N3629       N  0.79037324  0.11044324  0.65117768     0.64600
H3630       H  0.76519038  0.08649759  0.64712746     0.12500
N3631       N  0.79454226  0.06922899  0.71963146     0.61300
H3632       H  0.81856954  0.09355521  0.72401488     0.08600
O3633       O  0.89398916  0.13754927  0.65945751    -0.40200
O3634       O  0.91696893  0.13134985  0.69218294    -0.39400
O3635       O  0.76922084  0.11931930  0.74098860    -0.39400
O3636       O  0.74720054  0.12354573  0.70693884    -0.37100
O3637       O  0.81715600  0.06089439  0.71970299    -0.38000
O3638       O  0.77590604  0.06977991  0.73698832    -0.34100
O3639       O  0.80994248  0.11028043  0.63437637    -0.35600
O3640       O  0.76723209  0.11851118  0.65070357    -0.39800
C3641       C  0.92936972  0.04504952  0.27743962    -0.13500
C3642       C  0.91811373  0.05738796  0.28574558     0.16800
C3643       C  0.91503395  0.06815014  0.26988000     0.03100
C3644       C  0.92369921  0.06649214  0.24615954    -0.12000
C3645       C  0.93585852  0.05423846  0.23791950    -0.03100
C3646       C  0.93807747  0.04336910  0.25377985     0.02400
C3647       C  0.90918466  0.05860132  0.31096230     0.09200
N3648       N  0.90459539  0.08099011  0.27782142     0.65600
H3649       H  0.92203040  0.07495506  0.23439704     0.18500
N3650       N  0.94801496  0.03041936  0.24598640     0.76000
H3651       H  0.93114680  0.03665265  0.28935436     0.10000
C3652       C  0.87716790  0.05849526  0.31797808     0.03700
C3653       C  0.86951432  0.05807720  0.34196406    -0.05000
C3654       C  0.89328332  0.05762098  0.35947310    -0.23400
C3655       C  0.92539778  0.05839184  0.35240863     0.12900
C3656       C  0.93305076  0.05879074  0.32830048    -0.12600
N3657       N  0.85212873  0.05791071  0.30095705     0.64600
H3658       H  0.84475778  0.05764652  0.34681235     0.12500
N3659       N  0.95059097  0.05808139  0.36930608     0.61300
H3660       H  0.95769362  0.05887189  0.32307860     0.08600
O3661       O  0.92759571  0.02231050  0.23832079    -0.40200
O3662       O  0.97558804  0.02625738  0.25092500    -0.39400
O3663       O  0.92454996  0.08897650  0.28649040    -0.39400
O3664       O  0.87760484  0.08531502  0.27168796    -0.37100
O3665       O  0.96284026  0.04703064  0.37517355    -0.38000
O3666       O  0.96411267  0.06881457  0.37511058    -0.34100
O3667       O  0.84441393  0.04675492  0.29236641    -0.35600
O3668       O  0.83356998  0.06777089  0.29858973    -0.39800
C3669       C  0.79491199  0.03458964  0.52030815    -0.13500
C3670       C  0.79982710  0.04478419  0.53684241     0.16800
C3671       C  0.82088777  0.05521245  0.53134310     0.03100
C3672       C  0.83619747  0.05545659  0.50936494    -0.12000
C3673       C  0.83067068  0.04545401  0.49245283    -0.03100
C3674       C  0.81010456  0.03482636  0.49829378     0.02400
C3675       C  0.78356521  0.04414465  0.56004013     0.09200
N3676       N  0.82666357  0.06572401  0.54782120     0.65600
H3677       H  0.85157575  0.06371950  0.50525163     0.18500
N3678       N  0.80521610  0.02394623  0.48239187     0.76000
H3679       H  0.77935202  0.02640553  0.52454794     0.10000
C3680       C  0.75415397  0.05052938  0.56386740     0.03700
C3681       C  0.73969417  0.04996940  0.58613445    -0.05000
C3682       C  0.75385197  0.04291818  0.60495088    -0.23400
C3683       C  0.78304373  0.03613667  0.60068124     0.12900
C3684       C  0.79756075  0.03688466  0.57845918    -0.12600
N3685       N  0.73852988  0.05753820  0.54519031     0.64600
H3686       H  0.71740436  0.05516570  0.58866835     0.12500
N3687       N  0.79864979  0.02855408  0.61868678     0.61300
H3688       H  0.81995056  0.03180886  0.57559550     0.08600
O3689       O  0.77885718  0.02275774  0.47199105    -0.40200
O3690       O  0.82482404  0.01435817  0.48207490    -0.39400
O3691       O  0.85171259  0.06553936  0.56007087    -0.39400
O3692       O  0.80998671  0.07623331  0.54701157    -0.37100
O3693       O  0.79410936  0.01612210  0.61995850    -0.38000
O3694       O  0.82105776  0.03372909  0.63026920    -0.34100
O3695       O  0.71872341  0.05148653  0.53239365    -0.35600
O3696       O  0.74034191  0.07010090  0.54408346    -0.39800
C3697       C  0.62747636  0.18153448  0.32350711    -0.13500
C3698       C  0.65946263  0.17991282  0.32947714     0.16800
C3699       C  0.68192546  0.17783621  0.31142905     0.03100
C3700       C  0.67219712  0.17786923  0.28768588    -0.12000
C3701       C  0.64011157  0.17985500  0.28152043    -0.03100
C3702       C  0.61758574  0.18146035  0.29994272     0.02400
C3703       C  0.66871121  0.18092335  0.35466492     0.09200
N3704       N  0.71457891  0.17541840  0.31696540     0.65600
H3705       H  0.68984657  0.17651257  0.27411750     0.18500
N3706       N  0.58439912  0.18296870  0.29521067     0.76000
H3707       H  0.61007733  0.18301584  0.33723802     0.10000
C3708       C  0.68278739  0.19260480  0.36357710     0.03700
C3709       C  0.69073336  0.19345625  0.38749950    -0.05000
C3710       C  0.68411945  0.18295056  0.40317347    -0.23400
C3711       C  0.66893248  0.17141569  0.39435410     0.12900
C3712       C  0.66148894  0.17047893  0.37023300    -0.12600
N3713       N  0.68778957  0.20394301  0.34876537     0.64600
H3714       H  0.70174923  0.20249014  0.39389063     0.12500
N3715       N  0.66189630  0.16038889  0.40939563     0.61300
H3716       H  0.65015700  0.16156834  0.36361278     0.08600
O3717       O  0.57164281  0.19438557  0.29664442    -0.40200
O3718       O  0.56707116  0.17273882  0.29422525    -0.39400
O3719       O  0.72389658  0.16361890  0.32090671    -0.39400
O3720       O  0.73479494  0.18442577  0.31326720    -0.37100
O3721       O  0.63399305  0.15891958  0.41698765    -0.38000
O3722       O  0.68175666  0.15096982  0.41155033    -0.34100
O3723       O  0.66501437  0.21189166  0.34478971    -0.35600
O3724       O  0.71573064  0.20747446  0.34390848    -0.39800
C3725       C  0.55688316  0.24465904  0.47875232    -0.13500
C3726       C  0.58886988  0.24848366  0.48122948     0.16800
C3727       C  0.59615122  0.26220716  0.48195285     0.03100
C3728       C  0.57186214  0.27172999  0.48043915    -0.12000
C3729       C  0.53981496  0.26797831  0.47861224    -0.03100
C3730       C  0.53239606  0.25425620  0.47764991     0.02400
C3731       C  0.61445955  0.23811927  0.48166762     0.09200
N3732       N  0.62803971  0.26670297  0.48516374     0.65600
H3733       H  0.57821262  0.28213737  0.48164547     0.18500
N3734       N  0.99925802  0.24682229  0.47303255     0.76000
H3735       H  0.55092302  0.23424412  0.47726804     0.10000
C3736       C  0.61318980  0.22701384  0.49692849     0.03700
C3737       C  0.63654393  0.21700246  0.49561854    -0.05000
C3738       C  0.66185994  0.21789317  0.47957511    -0.23400
C3739       C  0.66368768  0.22922491  0.46484226     0.12900
C3740       C  0.63990980  0.23907829  0.46577116    -0.12600
N3741       N  0.58852973  0.22579600  0.51405564     0.64600
H3742       H  0.63479443  0.20849946  0.50717888     0.12500
N3743       N  0.68840839  0.23054665  0.44781599     0.61300
H3744       H  0.64087359  0.24726435  0.45352947     0.08600
O3745       O  0.98070529  0.24215473  0.48834634    -0.40200
O3746       O  0.99266195  0.24548539  0.45146343    -0.39400
O3747       O  0.64159038  0.27299947  0.46879733    -0.39400
O3748       O  0.63995625  0.26681650  0.50558697    -0.37100
O3749       O  0.68436728  0.22606788  0.42723965    -0.38000
O3750       O  0.71141581  0.23822411  0.45198437    -0.34100
O3751       O  0.56833321  0.21659249  0.51208033    -0.35600
O3752       O  0.59027755  0.23230623  0.53306061    -0.39800
C3753       C  0.79970017  0.19428817  0.56188174    -0.13500
C3754       C  0.79616283  0.18289525  0.57596954     0.16800
C3755       C  0.77520211  0.17278254  0.56852420     0.03100
C3756       C  0.75775333  0.17435745  0.54753411    -0.12000
C3757       C  0.76103854  0.18584253  0.53346366    -0.03100
C3758       C  0.78268345  0.19579589  0.54076415     0.02400
C3759       C  0.81219111  0.18258214  0.59936130     0.09200
N3760       N  0.77080799  0.16098538  0.58227096     0.65600
H3761       H  0.74192155  0.16647769  0.54209818     0.18500
N3762       N  0.78710124  0.20770757  0.52733155     0.76000
H3763       H  0.81546932  0.20215691  0.56749841     0.10000
C3764       C  0.83834289  0.17415655  0.60437880     0.03700
C3765       C  0.85323796  0.17476381  0.62659184    -0.05000
C3766       C  0.84250020  0.18366999  0.64409443    -0.23400
C3767       C  0.81629019  0.19210425  0.63885628     0.12900
C3768       C  0.80158718  0.19150279  0.61671489    -0.12600
N3769       N  0.85048507  0.16513364  0.58702403     0.64600
H3770       H  0.87290261  0.16809569  0.63025221     0.12500
N3771       N  0.80446479  0.20152059  0.65567683     0.61300
H3772       H  0.78174871  0.19808346  0.61301343     0.08600
O3773       O  0.81182852  0.20898403  0.51503629    -0.40200
O3774       O  0.76985616  0.21780055  0.53139885    -0.39400
O3775       O  0.74963578  0.16087216  0.59796063    -0.39400
O3776       O  0.78238606  0.15005218  0.57513346    -0.37100
O3777       O  0.81540301  0.21323007  0.65596574    -0.38000
O3778       O  0.77933464  0.19898488  0.66684823    -0.34100
O3779       O  0.86773160  0.16956462  0.57068103    -0.35600
O3780       O  0.84975271  0.15271379  0.59081933    -0.39800
C3781       C  0.78203797  0.10402264  0.43027908    -0.13500
C3782       C  0.80369772  0.11450282  0.43305630     0.16800
C3783       C  0.83641288  0.11184523  0.43209897     0.03100
C3784       C  0.84710926  0.09874215  0.42898128    -0.12000
C3785       C  0.82564623  0.08802025  0.42733045    -0.03100
C3786       C  0.79271643  0.09081313  0.42745725     0.02400
C3787       C  0.79197366  0.12780840  0.44002508     0.09200
N3788       N  0.85905813  0.12218939  0.43616319     0.65600
H3789       H  0.87241978  0.09694856  0.42880247     0.18500
N3790       N  0.76982945  0.08035579  0.42637473     0.76000
H3791       H  0.75685661  0.10603740  0.43133614     0.10000
C3792       C  0.79059468  0.13856281  0.42406710     0.03700
C3793       C  0.77930145  0.15102984  0.43167495    -0.05000
C3794       C  0.76872986  0.15277026  0.45489925    -0.23400
C3795       C  0.77068968  0.14204087  0.47092135     0.12900
C3796       C  0.78248923  0.12969011  0.46342545    -0.12600
N3797       N  0.79856374  0.13674156  0.39981778     0.64600
H3798       H  0.77704353  0.15909315  0.41913281     0.12500
N3799       N  0.76075324  0.14355339  0.49485422     0.61300
H3800       H  0.78393443  0.12150599  0.47579030     0.08600
O3801       O  0.75554247  0.07804711  0.40724137    -0.40200
O3802       O  0.75973622  0.07524323  0.44522607    -0.39400
O3803       O  0.86704457  0.12503750  0.45701251    -0.39400
O3804       O  0.87522435  0.12660033  0.41920742    -0.37100
O3805       O  0.73377219  0.13941873  0.50102532    -0.38000
O3806       O  0.78085110  0.14668237  0.51041005    -0.34100
O3807       O  0.77725452  0.13323904  0.38544621    -0.35600
O3808       O  0.82438342  0.14130287  0.39208856    -0.39800
C3809       C  0.79827533  0.31622509  0.08255975    -0.13500
C3810       C  0.78800490  0.30708329  0.09969433     0.16800
C3811       C  0.76915034  0.29620949  0.09263453     0.03100
C3812       C  0.75942358  0.29502155  0.06917403    -0.12000
C3813       C  0.76842299  0.30442554  0.05207945    -0.03100
C3814       C  0.78880060  0.31493964  0.05885180     0.02400
C3815       C  0.79551712  0.30920781  0.12506423     0.09200
N3816       N  0.75976351  0.28620292  0.10914018     0.65600
H3817       H  0.74449143  0.28671623  0.06440780     0.18500
N3818       N  0.79859501  0.32482556  0.04228928     0.76000
H3819       H  0.81264806  0.32461794  0.08770974     0.10000
C3820       C  0.82700173  0.30924949  0.13343879     0.03700
C3821       C  0.83289713  0.30946857  0.15774610    -0.05000
C3822       C  0.80785141  0.30985000  0.17416391    -0.23400
C3823       C  0.77642285  0.31093573  0.16568793     0.12900
C3824       C  0.77051623  0.31052173  0.14132676    -0.12600
N3825       N  0.85323701  0.30834554  0.11758055     0.64600
H3826       H  0.85720982  0.30891438  0.16378976     0.12500
N3827       N  0.75013290  0.31170925  0.18149157     0.61300
H3828       H  0.74628668  0.31087279  0.13510440     0.08600
O3829       O  0.78186161  0.33519764  0.03932964    -0.40200
O3830       O  0.82626781  0.32431304  0.03383682    -0.39400
O3831       O  0.73114705  0.28555400  0.11557199    -0.39400
O3832       O  0.77850812  0.27668008  0.11385140    -0.37100
O3833       O  0.73866285  0.32298563  0.18684059    -0.38000
O3834       O  0.73502152  0.30125704  0.18659322    -0.34100
O3835       O  0.86872962  0.31872703  0.11265622    -0.35600
O3836       O  0.86452630  0.29702873  0.11229741    -0.39800
C3837       C  0.83981592  0.22300411  0.97161886    -0.13500
C3838       C  0.84905511  0.23618038  0.97614995     0.16800
C3839       C  0.88158565  0.23895944  0.97955496     0.03100
C3840       C  0.90420296  0.22860540  0.97812156    -0.12000
C3841       C  0.89501039  0.21535089  0.97372279    -0.03100
C3842       C  0.86234904  0.21264549  0.97024785     0.02400
C3843       C  0.82436267  0.24687478  0.97668958     0.09200
N3844       N  0.89193183  0.25213215  0.98543389     0.65600
H3845       H  0.92892865  0.23090594  0.98100001     0.18500
N3846       N  0.85171987  0.19958058  0.96399482     0.76000
H3847       H  0.81505271  0.22079735  0.96862599     0.10000
C3848       C  0.82280183  0.25679167  0.95910057     0.03700
C3849       C  0.80000576  0.26700495  0.96059034    -0.05000
C3850       C  0.77806828  0.26752662  0.97920325    -0.23400
C3851       C  0.77900320  0.25735389  0.99646665     0.12900
C3852       C  0.80197457  0.24711685  0.99500736    -0.12600
N3853       N  0.84366386  0.25645965  0.93926206     0.64600
H3854       H  0.79951491  0.27460511  0.94707376     0.12500
N3855       N  0.75843585  0.25776799  0.01644961     0.61300
H3856       H  0.80295669  0.23956120  0.00858796     0.08600
O3857       O  0.83802637  0.19246522  0.97919570    -0.40200
O3858       O  0.85036827  0.19629366  0.94254192    -0.39400
O3859       O  0.88819384  0.25639182  0.00618484    -0.39400
O3860       O  0.91044914  0.25821891  0.97173830    -0.37100
O3861       O  0.73584090  0.24958742  0.01789530    -0.38000
O3862       O  0.76641675  0.26441704  0.03439598    -0.34100
O3863       O  0.83945648  0.24781029  0.92338364    -0.35600
O3864       O  0.86138543  0.26631244  0.93517617    -0.39800
C3865       C  0.57358707  0.42679215  0.17332228    -0.13500
C3866       C  0.55143758  0.43100018  0.15618277     0.16800
C3867       C  0.01321425  0.43848096  0.16058406     0.03100
C3868       C  0.00445033  0.43893397  0.18427514    -0.12000
C3869       C  0.53552464  0.43137023  0.20477751    -0.03100
C3870       C  0.56582888  0.42686827  0.19746791     0.02400
C3871       C  0.56042998  0.43173536  0.13084035     0.09200
N3872       N  0.99190216  0.44388754  0.14335336     0.65600
H3873       H  0.98151615  0.44313252  0.18851002     0.18500
N3874       N  0.58912082  0.42252996  0.21418239     0.76000
H3875       H  0.59689535  0.42348877  0.16797690     0.10000
C3876       C  0.58547161  0.43991242  0.12326640     0.03700
C3877       C  0.59123639  0.44155426  0.09916682    -0.05000
C3878       C  0.57262027  0.43508785  0.08194196    -0.23400
C3879       C  0.54814499  0.42650190  0.08963169     0.12900
C3880       C  0.54242718  0.42487882  0.11385796    -0.12600
N3881       N  0.60487042  0.44692084  0.13981213     0.64600
H3882       H  0.61038951  0.44804166  0.09402936     0.12500
N3883       N  0.52907027  0.41918999  0.07330332     0.61300
H3884       H  0.52359272  0.41835072  0.11941994     0.08600
O3885       O  0.61045182  0.43049801  0.22084951    -0.40200
O3886       O  0.59183194  0.41024439  0.21882983    -0.39400
O3887       O  0.96667281  0.43774173  0.13837455    -0.39400
O3888       O  0.99540311  0.45575833  0.13639118    -0.37100
O3889       O  0.50489636  0.42472528  0.06433913    -0.38000
O3890       O  0.02560452  0.40809371  0.06659014    -0.34100
O3891       O  0.63231963  0.44253501  0.14455008    -0.35600
O3892       O  0.59720610  0.45861106  0.14601090    -0.39800
C3893       C  0.50481655  0.48732843  0.99747935    -0.13500
C3894       C  0.50789905  0.49596217  0.01681924     0.16800
C3895       C  0.53387478  0.49423484  0.03236049     0.03100
C3896       C  0.55543216  0.48365652  0.02879822    -0.12000
C3897       C  0.55100773  0.47444732  0.01039640    -0.03100
C3898       C  0.52601238  0.47664314  0.99417551     0.02400
C3899       C  0.97862069  0.50397777  0.02321113     0.09200
N3900       N  0.53701824  0.50229537  0.05306068     0.65600
H3901       H  0.57413419  0.48203426  0.04155395     0.18500
N3902       N  0.52168212  0.46805848  0.97430576     0.76000
H3903       H  0.97749007  0.48644897  0.98728613     0.10000
C3904       C  0.98641309  0.51764841  0.02328868     0.03700
C3905       C  0.96321487  0.52718644  0.02900998    -0.05000
C3906       C  0.93168666  0.52348717  0.03390457    -0.23400
C3907       C  0.92385133  0.50979981  0.03359265     0.12900
C3908       C  0.94731856  0.50019259  0.02844336    -0.12600
N3909       N  0.01709611  0.52210361  0.01602636     0.64600
H3910       H  0.96962831  0.53760048  0.02841198     0.12500
N3911       N  0.89245624  0.50543801  0.03893067     0.61300
H3912       H  0.94111370  0.48974868  0.02856086     0.08600
O3913       O  0.53622749  0.47048530  0.95538586    -0.40200
O3914       O  0.49924191  0.45975835  0.97423999    -0.39400
O3915       O  0.51719053  0.50109496  0.06955568    -0.39400
O3916       O  0.56245479  0.50857943  0.05673723    -0.37100
O3917       O  0.87357510  0.50267232  0.02235138    -0.38000
O3918       O  0.88590916  0.50184015  0.05965484    -0.34100
O3919       O  0.02449437  0.52146530  0.99451415    -0.35600
O3920       O  0.53385507  0.53244502  0.03003886    -0.39800
C3921       C  0.64389804  0.38116343  0.03270083    -0.13500
C3922       C  0.66693523  0.37786681  0.01587000     0.16800
C3923       C  0.67968053  0.38801068  0.00151817     0.03100
C3924       C  0.66852761  0.40117270  0.00370054    -0.12000
C3925       C  0.64417321  0.40426904  0.01958832    -0.03100
C3926       C  0.63216626  0.39422823  0.03441933     0.02400
C3927       C  0.67413368  0.36359836  0.01156446     0.09200
N3928       N  0.70283071  0.38497156  0.98391264     0.65600
H3929       H  0.67745359  0.40877625  0.99199493     0.18500
N3930       N  0.60664738  0.39697792  0.05025904     0.76000
H3931       H  0.63364977  0.37344055  0.04351074     0.10000
C3932       C  0.68792678  0.35542844  0.02908626     0.03700
C3933       C  0.69328228  0.34184251  0.02450846    -0.05000
C3934       C  0.68504758  0.33629954  0.00264596    -0.23400
C3935       C  0.67045692  0.34435629  0.98542297     0.12900
C3936       C  0.66485172  0.35789698  0.99003197    -0.12600
N3937       N  0.69823219  0.36094345  0.05103328     0.64600
H3938       H  0.70548885  0.33579931  0.03749791     0.12500
N3939       N  0.66179066  0.33894789  0.96302004     0.61300
H3940       H  0.65334651  0.36397757  0.97677848     0.08600
O3941       O  0.61264643  0.40057829  0.07110750    -0.40200
O3942       O  0.57893807  0.39331015  0.04490551    -0.39400
O3943       O  0.69442812  0.38415316  0.96259807    -0.39400
O3944       O  0.73197106  0.38564309  0.98897686    -0.37100
O3945       O  0.63447981  0.33407923  0.96014329    -0.38000
O3946       O  0.67933235  0.34089062  0.94537319    -0.34100
O3947       O  0.68373958  0.35802321  0.06975244    -0.35600
O3948       O  0.72469633  0.36676043  0.05223891    -0.39800
C3949       C  0.54460386  0.30973469  0.58528175    -0.13500
C3950       C  0.52523940  0.30401552  0.60268372     0.16800
C3951       C  0.98933235  0.29959418  0.59532440     0.03100
C3952       C  0.98214211  0.29844153  0.57133503    -0.12000
C3953       C  0.00555183  0.30010719  0.55395721    -0.03100
C3954       C  0.53707335  0.30852349  0.56117639     0.02400
C3955       C  0.53326615  0.30560474  0.62814456     0.09200
N3956       N  0.96474606  0.29729922  0.61212713     0.65600
H3957       H  0.95802701  0.29613761  0.56635746     0.18500
N3958       N  0.55764729  0.31452301  0.54427791     0.76000
H3959       H  0.56545143  0.31524843  0.59042890     0.10000
C3960       C  0.56209014  0.30073279  0.63743745     0.03700
C3961       C  0.56863722  0.30206487  0.66155536    -0.05000
C3962       C  0.54671717  0.30807414  0.67716176    -0.23400
C3963       C  0.51804530  0.31323160  0.66763161     0.12900
C3964       C  0.51164760  0.31196025  0.64337668    -0.12600
N3965       N  0.58424750  0.29371500  0.62284296     0.64600
H3966       H  0.59070814  0.29795502  0.66810655     0.12500
N3967       N  0.49501004  0.31973078  0.68217293     0.61300
H3968       H  0.48968105  0.31594306  0.63641296     0.08600
O3969       O  0.58158564  0.30812322  0.53695725    -0.40200
O3970       O  0.55525669  0.32686836  0.54005645    -0.39400
O3971       O  0.94296263  0.30589238  0.61469631    -0.39400
O3972       O  0.96132971  0.28576447  0.62068306    -0.37100
O3973       O  0.49729207  0.33211285  0.68597534    -0.38000
O3974       O  0.46926263  0.31389850  0.68671369    -0.34100
O3975       O  0.61114253  0.29869978  0.61879858    -0.35600
O3976       O  0.57895820  0.28172802  0.61721890    -0.39800
C3977       C  0.96474559  0.25917236  0.75100663    -0.13500
C3978       C  0.97676934  0.24765952  0.73996581     0.16800
C3979       C  0.51232304  0.24798269  0.74597693     0.03100
C3980       C  0.53009977  0.25970264  0.74875769    -0.12000
C3981       C  0.51577430  0.27234521  0.74636567    -0.03100
C3982       C  0.48279015  0.27307686  0.74144523     0.02400
C3983       C  0.95462259  0.23664729  0.73332266     0.09200
N3984       N  0.52774091  0.23533108  0.74887017     0.65600
H3985       H  0.55512769  0.25889561  0.75272539     0.18500
N3986       N  0.46724621  0.28557744  0.73713915     0.76000
H3987       H  0.94000669  0.25974708  0.75566934     0.10000
C3988       C  0.93339374  0.23088118  0.74965266     0.03700
C3989       C  0.91296294  0.22057669  0.74248165    -0.05000
C3990       C  0.91380203  0.21562482  0.71933458    -0.23400
C3991       C  0.93410396  0.22169554  0.70285996     0.12900
C3992       C  0.95384902  0.23221732  0.70981253    -0.12600
N3993       N  0.93382303  0.23468531  0.77393962     0.64600
H3994       H  0.89816067  0.21580090  0.75543327     0.12500
N3995       N  0.93496114  0.21725426  0.67893080     0.61300
H3996       H  0.96870286  0.23687462  0.69681434     0.08600
O3997       O  0.97033114  0.28226048  0.78891851    -0.40200
O3998       O  0.46659490  0.29022114  0.71647922    -0.39400
O3999       O  0.54735663  0.23132387  0.73360809    -0.39400
O4000       O  0.52612007  0.22939151  0.76843366    -0.37100
O4001       O  0.91520214  0.22192379  0.66429579    -0.38000
O4002       O  0.95845764  0.21055569  0.67164977    -0.34100
O4003       O  0.90996688  0.24049940  0.78275490    -0.35600
O4004       O  0.95514533  0.23005794  0.78736601    -0.39800
C4005       C  0.61563967  0.31454344  0.85068532    -0.13500
C4006       C  0.62710742  0.30223652  0.85931240     0.16800
C4007       C  0.62106453  0.29056262  0.84613337     0.03100
C4008       C  0.60508899  0.29138090  0.82442704    -0.12000
C4009       C  0.59428324  0.30368465  0.81547847    -0.03100
C4010       C  0.59923735  0.31533910  0.82902929     0.02400
C4011       C  0.64525158  0.30165088  0.88202615     0.09200
N4012       N  0.63251158  0.27784843  0.85396816     0.65600
H4013       H  0.60195422  0.28238273  0.81415122     0.18500
N4014       N  0.58976082  0.32815518  0.82031996     0.76000
H4015       H  0.61976833  0.32357411  0.86064227     0.10000
C4016       C  0.67429568  0.30839991  0.88501153     0.03700
C4017       C  0.69095691  0.30752244  0.90646856    -0.05000
C4018       C  0.67926871  0.30003629  0.92555456    -0.23400
C4019       C  0.64977576  0.29341472  0.92256939     0.12900
C4020       C  0.63333786  0.29422001  0.90098340    -0.12600
N4021       N  0.68768264  0.31593935  0.86616487     0.64600
H4022       H  0.71316608  0.31278799  0.90811801     0.12500
N4023       N  0.63575922  0.28594814  0.94126837     0.61300
H4024       H  0.61091216  0.28913729  0.89912478     0.08600
O4025       O  0.61006155  0.33560957  0.81075820    -0.40200
O4026       O  0.56313184  0.33295872  0.82613346    -0.39400
O4027       O  0.61318708  0.26930611  0.86161846    -0.39400
O4028       O  0.66079883  0.27440923  0.84969163    -0.37100
O4029       O  0.61580647  0.29155356  0.95463786    -0.38000
O4030       O  0.63830876  0.27337779  0.94140298    -0.34100
O4031       O  0.68782941  0.32853305  0.86729131    -0.35600
O4032       O  0.70434064  0.31007500  0.85081999    -0.39800
C4033       C  0.76345133  0.42954285  0.61017523    -0.13500
C4034       C  0.78881573  0.42847692  0.62629973     0.16800
C4035       C  0.81978466  0.42652481  0.61768344     0.03100
C4036       C  0.82518960  0.42641106  0.59340045    -0.12000
C4037       C  0.80016280  0.42816828  0.57716678    -0.03100
C4038       C  0.76887290  0.42932884  0.58573593     0.02400
C4039       C  0.78274571  0.42981899  0.65197760     0.09200
N4040       N  0.84628649  0.42537184  0.63336240     0.65600
H4041       H  0.84931814  0.42529213  0.58724291     0.18500
N4042       N  0.74259633  0.43095511  0.57001099     0.76000
H4043       H  0.73950071  0.43078318  0.61658305     0.10000
C4044       C  0.76863692  0.44148971  0.66118269     0.03700
C4045       C  0.76188420  0.44236525  0.68523864    -0.05000
C4046       C  0.76959348  0.43187456  0.70074327    -0.23400
C4047       C  0.78464206  0.42032574  0.69166337     0.12900
C4048       C  0.79086751  0.41934824  0.66740599    -0.12600
N4049       N  0.76197625  0.45274008  0.64642230     0.64600
H4050       H  0.75090538  0.45139573  0.69183511     0.12500
N4051       N  0.79243410  0.40926884  0.70655738     0.61300
H4052       H  0.80149299  0.41031438  0.66055684     0.08600
O4053       O  0.73280794  0.44254698  0.56493465    -0.40200
O4054       O  0.72589853  0.42096759  0.56467012    -0.39400
O4055       O  0.85923534  0.41411184  0.63658698    -0.39400
O4056       O  0.86007524  0.43578364  0.64049514    -0.37100
O4057       O  0.77225123  0.40020216  0.70990667    -0.38000
O4058       O  0.82086979  0.40739813  0.71287803    -0.34100
O4059       O  0.73355230  0.45582658  0.64173553    -0.35600
O4060       O  0.78385717  0.46086733  0.64170816    -0.39800
C4061       C  0.82705404  0.48710784  0.75500274    -0.13500
C4062       C  0.84944242  0.48747869  0.77335738     0.16800
C4063       C  0.84796241  0.47792620  0.79153500     0.03100
C4064       C  0.82489902  0.46793993  0.79065982    -0.12000
C4065       C  0.80244373  0.46756817  0.77234271    -0.03100
C4066       C  0.80353692  0.47729147  0.75441303     0.02400
C4067       C  0.87264728  0.49848956  0.77391971     0.09200
N4068       N  0.86843412  0.47868264  0.81163391     0.65600
H4069       H  0.82405833  0.46062115  0.80465508     0.18500
N4070       N  0.78202632  0.47694296  0.73490782     0.76000
H4071       H  0.82793120  0.49445700  0.74105492     0.10000
C4072       C  0.90573621  0.49628375  0.77256327     0.03700
C4073       C  0.92652206  0.50718464  0.77359055    -0.05000
C4074       C  0.91473799  0.52031555  0.77516679    -0.23400
C4075       C  0.88147206  0.52240341  0.77644064     0.12900
C4076       C  0.86093772  0.51153472  0.77586836    -0.12600
N4077       N  0.91845863  0.48318024  0.76871583     0.64600
H4078       H  0.95178981  0.50540869  0.77228274     0.12500
N4079       N  0.86799099  0.53547052  0.77898587     0.61300
H4080       H  0.83563312  0.51328776  0.77711527     0.08600
O4081       O  0.78990416  0.47083505  0.71633946    -0.40200
O4082       O  0.75836532  0.48474140  0.73456858    -0.39400
O4083       O  0.86330720  0.48750651  0.82708689    -0.39400
O4084       O  0.88677949  0.46902722  0.81637464    -0.37100
O4085       O  0.85519613  0.54108732  0.76143029    -0.38000
O4086       O  0.86355181  0.54020885  0.79933457    -0.34100
O4087       O  0.91451644  0.47762337  0.74895998    -0.35600
O4088       O  0.93867839  0.47842612  0.78292152    -0.39800
C4089       C  0.68393969  0.45195630  0.86693211    -0.13500
C4090       C  0.68353886  0.44030811  0.88064946     0.16800
C4091       C  0.69831463  0.42864376  0.87201439     0.03100
C4092       C  0.71290234  0.42870663  0.84980063    -0.12000
C4093       C  0.71259394  0.44024376  0.83567823    -0.03100
C4094       C  0.69815538  0.45200178  0.84456115     0.02400
C4095       C  0.66730259  0.44048263  0.90383662     0.09200
N4096       N  0.69784303  0.41654265  0.88533417     0.65600
H4097       H  0.72342146  0.41956797  0.84322558     0.18500
N4098       N  0.69828874  0.46414294  0.83131634     0.76000
H4099       H  0.67297326  0.46099430  0.87353735     0.10000
C4100       C  0.68348275  0.44435291  0.92438740     0.03700
C4101       C  0.66744853  0.44479092  0.94596584    -0.05000
C4102       C  0.63509070  0.44134064  0.94774218    -0.23400
C4103       C  0.61888335  0.43748474  0.92696158     0.12900
C4104       C  0.63505517  0.43710534  0.90528288    -0.12600
N4105       N  0.71638263  0.44775276  0.92366977     0.64600
H4106       H  0.68073117  0.44764579  0.96144809     0.12500
N4107       N  0.58595081  0.43416903  0.92736889     0.61300
H4108       H  0.62238927  0.43423170  0.88952635     0.08600
O4109       O  0.72120690  0.47211468  0.83356481    -0.40200
O4110       O  0.67323259  0.46801435  0.82108159    -0.39400
O4111       O  0.67658764  0.40799790  0.88131934    -0.39400
O4112       O  0.72142001  0.41342136  0.89799300    -0.37100
O4113       O  0.56544450  0.44311919  0.92323326    -0.38000
O4114       O  0.57778104  0.42205853  0.92741160    -0.34100
O4115       O  0.72437562  0.45988360  0.92375875    -0.35600
O4116       O  0.73709226  0.43884437  0.92751439    -0.39800
C4117       C  0.66091054  0.35538805  0.74272638    -0.13500
C4118       C  0.64511356  0.36568620  0.75483215     0.16800
C4119       C  0.61464256  0.36348928  0.76390042     0.03100
C4120       C  0.60024902  0.35112781  0.76069662    -0.12000
C4121       C  0.61564026  0.34070814  0.74843875    -0.03100
C4122       C  0.64647357  0.34290017  0.73952479     0.02400
C4123       C  0.66041653  0.37877363  0.75773279     0.09200
N4124       N  0.59763899  0.37385004  0.77590615     0.65600
H4125       H  0.57680508  0.34973468  0.76797052     0.18500
N4126       N  0.66309942  0.33275876  0.72672969     0.76000
H4127       H  0.68438753  0.35707521  0.73571229     0.10000
C4128       C  0.67361861  0.38261612  0.77949945     0.03700
C4129       C  0.68768916  0.39515814  0.78174385    -0.05000
C4130       C  0.68884849  0.40394169  0.76252858    -0.23400
C4131       C  0.67527596  0.40018114  0.74083810     0.12900
C4132       C  0.66100506  0.38763621  0.73861040    -0.12600
N4133       N  0.67425709  0.37365419  0.79910930     0.64600
H4134       H  0.69859758  0.39788949  0.79829640     0.12500
N4135       N  0.67799088  0.40852560  0.72052723     0.61300
H4136       H  0.65093132  0.38470072  0.72188689     0.08600
O4137       O  0.68461430  0.32604913  0.73686435    -0.40200
O4138       O  0.66057221  0.33228148  0.70458343    -0.39400
O4139       O  0.58258930  0.38249586  0.76407979    -0.39400
O4140       O  0.59230778  0.37276138  0.79769044    -0.37100
O4141       O  0.70234455  0.40762649  0.70769625    -0.38000
O4142       O  0.65406296  0.41495563  0.71321159    -0.34100
O4143       O  0.69567937  0.36480213  0.80026877    -0.35600
O4144       O  0.65804142  0.37631535  0.81720206    -0.39800
C4145       C  0.56839804  0.81448353  0.09094397    -0.13500
C4146       C  0.54395294  0.81611077  0.10759924     0.16800
C4147       C  0.01766826  0.81741198  0.09818558     0.03100
C4148       C  0.01089870  0.81752213  0.07403882    -0.12000
C4149       C  0.53028839  0.81676074  0.05875330    -0.03100
C4150       C  0.56186870  0.81501374  0.06661002     0.02400
C4151       C  0.55047199  0.81405791  0.13311515     0.09200
N4152       N  0.99202460  0.81826812  0.11456224     0.65600
H4153       H  0.98637536  0.81821257  0.06853031     0.18500
N4154       N  0.58722959  0.81313431  0.05023435     0.76000
H4155       H  0.59237750  0.81255299  0.09684497     0.10000
C4156       C  0.55921568  0.80137070  0.14179178     0.03700
C4157       C  0.56480001  0.79954534  0.16593549    -0.05000
C4158       C  0.56186070  0.81022204  0.18189791    -0.23400
C4159       C  0.55339351  0.82298865  0.17317185     0.12900
C4160       C  0.54739234  0.82476313  0.14898110    -0.12600
N4161       N  0.56206451  0.79017431  0.12628257     0.64600
H4162       H  0.57160263  0.78974960  0.17220582     0.12500
N4163       N  0.55355527  0.83445465  0.18821125     0.61300
H4164       H  0.54129441  0.83458174  0.14246660     0.08600
O4165       O  0.59722847  0.80149607  0.04576137    -0.40200
O4166       O  0.60289516  0.82310086  0.04334462    -0.39400
O4167       O  0.98046391  0.82955119  0.11976130    -0.39400
O4168       O  0.97752566  0.80780555  0.12049666    -0.37100
O4169       O  0.57956326  0.84006287  0.19298941    -0.38000
O4170       O  0.52778578  0.84033780  0.19302187    -0.34100
O4171       O  0.58922629  0.78602351  0.12028339    -0.35600
O4172       O  0.53787163  0.78332173  0.12138134    -0.39800
C4173       C  0.94201257  0.74481195  0.25450523    -0.13500
C4174       C  0.97349134  0.74191563  0.26125168     0.16800
C4175       C  0.98121422  0.72892320  0.26903892     0.03100
C4176       C  0.95778642  0.71906899  0.26940747    -0.12000
C4177       C  0.92624634  0.72195093  0.26287170    -0.03100
C4178       C  0.91838544  0.73496904  0.25536970     0.02400
C4179       C  0.49329116  0.75244163  0.26281749     0.09200
N4180       N  0.50880403  0.72601081  0.28183097     0.65600
H4181       H  0.96406770  0.70920922  0.27569241     0.18500
N4182       N  0.88697322  0.73819962  0.24761920     0.76000
H4183       H  0.93583493  0.75472572  0.24845002     0.10000
C4184       C  0.51922668  0.75202762  0.24710797     0.03700
C4185       C  0.54073258  0.76269867  0.24636618    -0.05000
C4186       C  0.53666899  0.77402545  0.26075967    -0.23400
C4187       C  0.51118386  0.77420834  0.27696053     0.12900
C4188       C  0.48976665  0.76351337  0.27776140    -0.12600
N4189       N  0.52297488  0.74124927  0.23076617     0.64600
H4190       H  0.55978119  0.76238427  0.23365437     0.12500
N4191       N  0.50721745  0.78498115  0.29324421     0.61300
H4192       H  0.47037358  0.76382082  0.29019130     0.08600
O4193       O  0.88004718  0.73722568  0.22603968    -0.40200
O4194       O  0.86825354  0.74425195  0.26134835    -0.39400
O4195       O  0.51532572  0.72973765  0.30252603    -0.39400
O4196       O  0.52641637  0.71746332  0.27190379    -0.37100
O4197       O  0.48485963  0.79327428  0.29032079    -0.38000
O4198       O  0.52212175  0.78476514  0.31256610    -0.34100
O4199       O  0.50452570  0.74046874  0.21326204    -0.35600
O4200       O  0.05500827  0.73447878  0.23068149    -0.39800
C4201       C  0.81292910  0.92541117  0.08686332    -0.13500
C4202       C  0.79036327  0.92925543  0.06984224     0.16800
C4203       C  0.75952621  0.93275474  0.07713618     0.03100
C4204       C  0.75193826  0.93276753  0.10106870    -0.12000
C4205       C  0.77472001  0.92950062  0.11839446    -0.03100
C4206       C  0.80543124  0.92552313  0.11098279     0.02400
C4207       C  0.79925976  0.93002253  0.04458288     0.09200
N4208       N  0.73604558  0.93706354  0.06050860     0.65600
H4209       H  0.72824221  0.93581490  0.10601973     0.18500
N4210       N  0.82947468  0.92179453  0.12757320     0.76000
H4211       H  0.83646509  0.92243271  0.08144357     0.10000
C4212       C  0.82343172  0.93862911  0.03698611     0.03700
C4213       C  0.82932724  0.94015592  0.01293875    -0.05000
C4214       C  0.81217573  0.93292360  0.99585748    -0.23400
C4215       C  0.78877490  0.92384995  0.00359021     0.12900
C4216       C  0.78232692  0.92259365  0.02775410    -0.12600
N4217       N  0.84206732  0.94604272  0.05346388     0.64600
H4218       H  0.84790301  0.94692689  0.00776579     0.12500
N4219       N  0.77163008  0.91569122  0.98733987     0.61300
H4220       H  0.76415769  0.91575744  0.03341032     0.08600
O4221       O  0.85109711  0.92997310  0.13275207    -0.40200
O4222       O  0.83235039  0.90971672  0.13363738    -0.39400
O4223       O  0.71277041  0.92962125  0.05584915    -0.39400
O4224       O  0.73588456  0.94901801  0.05344387    -0.37100
O4225       O  0.78165748  0.90406750  0.98276085    -0.38000
O4226       O  0.74387198  0.91904003  0.98121736    -0.34100
O4227       O  0.86971158  0.94202159  0.05856715    -0.35600
O4228       O  0.83369903  0.95775673  0.05898941    -0.39800
C4229       C  0.82253544  0.98525813  0.15398745    -0.13500
C4230       C  0.83394310  0.99219484  0.17370893     0.16800
C4231       C  0.82240194  0.98896059  0.19630764     0.03100
C4232       C  0.80144227  0.97826295  0.19900199    -0.12000
C4233       C  0.79098070  0.97103706  0.17936666     0.00100
C4234       C  0.80111179  0.97472916  0.15665676     0.02400
C4235       C  0.85918409  0.00222857  0.17038265     0.09200
N4236       N  0.83146911  0.99652452  0.21659241     0.65600
H4237       H  0.79372149  0.97545089  0.21644095     0.18500
N4238       N  0.79193983  0.96718345  0.13638231     0.76000
H4239       H  0.83127297  0.98766688  0.13662507     0.10000
C4240       C  0.89030685  0.99997847  0.17872892     0.03700
C4241       C  0.91347733  0.00980783  0.17572387    -0.05000
C4242       C  0.90646646  0.02186432  0.16401207    -0.23400
C4243       C  0.87548465  0.02377095  0.15472105     0.12900
C4244       C  0.85221531  0.01401271  0.15810486    -0.12600
N4245       N  0.89901128  0.98758886  0.18961374     0.64600
H4246       H  0.93693419  0.00801077  0.18284351     0.12500
N4247       N  0.86716480  0.03548114  0.14164729     0.61300
H4248       H  0.82857190  0.01565891  0.15118819     0.08600
O4249       O  0.81035095  0.95824147  0.12854392    -0.40200
O4250       O  0.76905019  0.97120478  0.12380703    -0.39400
O4251       O  0.81923877  0.00791875  0.21986015    -0.39400
O4252       O  0.84576751  0.99080577  0.23339501    -0.37100
O4253       O  0.87160836  0.03568427  0.11966874    -0.38000
O4254       O  0.84994211  0.04435725  0.15104374    -0.34100
O4255       O  0.90138746  0.97718587  0.17713978    -0.35600
O4256       O  0.91009479  0.98754356  0.21029942    -0.39800
C4257       C  0.71544408  0.87505422  0.19904375    -0.13500
C4258       C  0.68253847  0.87419954  0.20216651     0.16800
C4259       C  0.66351709  0.88569283  0.19885094     0.03100
C4260       C  0.67767473  0.89790217  0.19339798    -0.12000
C4261       C  0.71078239  0.89893837  0.19125685    -0.03100
C4262       C  0.72968760  0.88724539  0.19357505     0.02400
C4263       C  0.66903544  0.86170804  0.21167575     0.09200
N4264       N  0.62978906  0.88518127  0.20146533     0.65600
H4265       H  0.66273198  0.90664746  0.19163749     0.18500
N4266       N  0.76344891  0.88755829  0.19101447     0.76000
H4267       H  0.73029122  0.86637827  0.20186399     0.10000
C4268       C  0.67348467  0.84927078  0.20043847     0.03700
C4269       C  0.66095241  0.83768177  0.21053467    -0.05000
C4270       C  0.64375055  0.83831006  0.23168380    -0.23400
C4271       C  0.64048269  0.85068778  0.24335063     0.12900
C4272       C  0.65321836  0.86221405  0.23336840    -0.12600
N4273       N  0.68943401  0.84832899  0.17829322     0.64600
H4274       H  0.66334535  0.82831775  0.20122825     0.12500
N4275       N  0.62521317  0.85166320  0.26574188     0.61300
H4276       H  0.65104197  0.87156399  0.24272127     0.08600
O4277       O  0.77572354  0.88462667  0.17140447    -0.40200
O4278       O  0.78084181  0.88815559  0.20912957    -0.39400
O4279       O  0.61679539  0.89085105  0.21885196    -0.39400
O4280       O  0.61286452  0.88130645  0.18443126    -0.37100
O4281       O  0.64147848  0.85014414  0.28426120    -0.38000
O4282       O  0.59768887  0.85666441  0.26708729    -0.34100
O4283       O  0.71651165  0.84288651  0.17723788    -0.35600
O4284       O  0.67427475  0.85065925  0.15951494    -0.39800
C4285       C  0.77679225  0.81768350  0.65180713    -0.13500
C4286       C  0.78909306  0.80859364  0.63518092     0.16800
C4287       C  0.80847412  0.79799556  0.64321693     0.03100
C4288       C  0.81587673  0.79683976  0.66717351    -0.12000
C4289       C  0.80420577  0.80602480  0.68390400    -0.03100
C4290       C  0.78392436  0.81642940  0.67597497     0.02400
C4291       C  0.78217455  0.81030364  0.60950787     0.09200
N4292       N  0.82055765  0.78813981  0.62728231     0.65600
H4293       H  0.83107556  0.78867319  0.67258755     0.18500
N4294       N  0.77103128  0.82603512  0.69199712     0.76000
H4295       H  0.76216733  0.82592967  0.64600388     0.10000
C4296       C  0.75079503  0.81102271  0.60087947     0.03700
C4297       C  0.74514017  0.81138277  0.57654910    -0.05000
C4298       C  0.77024649  0.81105530  0.56020107    -0.23400
C4299       C  0.80172741  0.81111664  0.56884955     0.12900
C4300       C  0.80739258  0.81079258  0.59327798    -0.12600
N4301       N  0.72424473  0.81074005  0.61650356     0.64600
H4302       H  0.72082863  0.81158186  0.57046456     0.12500
N4303       N  0.82823516  0.81082434  0.55319289     0.61300
H4304       H  0.83158078  0.81065000  0.59956311     0.08600
O4305       O  0.74347248  0.82439669  0.70014902    -0.40200
O4306       O  0.78463173  0.83713683  0.69466553    -0.39400
O4307       O  0.84990882  0.78771865  0.62286094    -0.39400
O4308       O  0.80320238  0.77847546  0.62128516    -0.37100
O4309       O  0.84253031  0.82153273  0.54844950    -0.38000
O4310       O  0.84077686  0.79976436  0.54774627    -0.34100
O4311       O  0.70786559  0.82120178  0.61954569    -0.35600
O4312       O  0.71362689  0.79965206  0.62340161    -0.39800
C4313       C  0.83677714  0.75826630  0.48466951    -0.13500
C4314       C  0.83014717  0.75024728  0.50424927     0.16800
C4315       C  0.80227687  0.75270811  0.51740792     0.03100
C4316       C  0.78196915  0.76325433  0.51098480    -0.12000
C4317       C  0.78973225  0.77183238  0.49234313    -0.03100
C4318       C  0.81707592  0.76905092  0.47874338     0.02400
C4319       C  0.85319241  0.73962459  0.51082257     0.09200
N4320       N  0.79585925  0.74549296  0.53862130     0.65600
H4321       H  0.76163643  0.76545053  0.52193816     0.18500
N4322       N  0.82567045  0.77727010  0.45920499     0.76000
H4323       H  0.85780671  0.75634393  0.47428349     0.10000
C4324       C  0.84425429  0.72611256  0.51189213     0.03700
C4325       C  0.86674317  0.71642516  0.51817848    -0.05000
C4326       C  0.89866979  0.71978405  0.52247493    -0.23400
C4327       C  0.90764581  0.73331391  0.52125715     0.12900
C4328       C  0.88485611  0.74310679  0.51565518    -0.12600
N4329       N  0.81315095  0.72192496  0.50495591     0.64600
H4330       H  0.85943852  0.70609514  0.51838040     0.12500
N4331       N  0.93950048  0.73732773  0.52607194     0.61300
H4332       H  0.89191002  0.75346292  0.51496918     0.08600
O4333       O  0.81590022  0.77431191  0.43883153    -0.40200
O4334       O  0.84783485  0.78560842  0.46150731    -0.39400
O4335       O  0.81446610  0.74660807  0.55597868    -0.39400
O4336       O  0.76893319  0.74029348  0.54161385    -0.37100
O4337       O  0.95789319  0.73991064  0.50917920    -0.38000
O4338       O  0.94700863  0.74088914  0.54667106    -0.34100
O4339       O  0.80486928  0.72290980  0.48363126    -0.35600
O4340       O  0.79685295  0.71486292  0.51875636    -0.39800
C4341       C  0.64590112  0.81528851  0.35185560    -0.13500
C4342       C  0.67100029  0.80619257  0.35535426     0.16800
C4343       C  0.67758832  0.79667855  0.33772579     0.03100
C4344       C  0.65921705  0.79633989  0.31711342    -0.12000
C4345       C  0.63401813  0.80543406  0.31336957    -0.03100
C4346       C  0.62744280  0.81499515  0.33115230     0.02400
C4347       C  0.68803912  0.80586821  0.37837543     0.09200
N4348       N  0.70349764  0.78748836  0.34023635     0.65600
H4349       H  0.66510888  0.78899551  0.30386198     0.18500
N4350       N  0.60240809  0.82458070  0.32849596     0.76000
H4351       H  0.64023777  0.82247647  0.36541502     0.10000
C4352       C  0.70674965  0.81661571  0.38635053     0.03700
C4353       C  0.72124673  0.81606336  0.40870221    -0.05000
C4354       C  0.71667800  0.80504854  0.42366536    -0.23400
C4355       C  0.69801615  0.79428276  0.41553208     0.12900
C4356       C  0.68423509  0.79471823  0.39303029    -0.12600
N4357       N  0.71093695  0.82821882  0.37206931     0.64600
H4358       H  0.73498200  0.82447911  0.41471775     0.12500
N4359       N  0.69265075  0.78281904  0.42995433     0.61300
H4360       H  0.66980378  0.78646521  0.38722334     0.08600
O4361       O  0.60891767  0.83640341  0.32261127    -0.40200
O4362       O  0.57514927  0.82198144  0.33638907    -0.39400
O4363       O  0.69803820  0.77522109  0.34320825    -0.39400
O4364       O  0.73128968  0.79122535  0.33537392    -0.37100
O4365       O  0.66672879  0.78173769  0.44088446    -0.38000
O4366       O  0.71079071  0.77278997  0.42813633    -0.34100
O4367       O  0.69470702  0.83860021  0.37618728    -0.35600
O4368       O  0.73439497  0.82886486  0.35833773    -0.39800
C4369       C  0.56040303  0.93956104  0.53548728    -0.13500
C4370       C  0.54368904  0.92803740  0.54177083     0.16800
C4371       C  0.53499965  0.91892388  0.52395633     0.03100
C4372       C  0.54297513  0.92146548  0.50033194    -0.12000
C4373       C  0.55984664  0.93301204  0.49394071    -0.03100
C4374       C  0.56851311  0.94211916  0.51197323     0.02400
C4375       C  0.53295340  0.92651771  0.56662819     0.09200
N4376       N  0.51902386  0.90680470  0.52969476     0.65600
H4377       H  0.53662051  0.91420296  0.48709502     0.18500
N4378       N  0.58477931  0.95425234  0.50676205     0.76000
H4379       H  0.56647787  0.94680494  0.54883059     0.10000
C4380       C  0.55468654  0.92599466  0.58557194     0.03700
C4381       C  0.54370377  0.92647835  0.60891547    -0.05000
C4382       C  0.51111718  0.92770977  0.61394905    -0.23400
C4383       C  0.99034379  0.93054916  0.59471515     0.12900
C4384       C  0.00117347  0.92955860  0.57141293    -0.12600
N4385       N  0.58807687  0.92511954  0.58137633     0.64600
H4386       H  0.56086595  0.92631655  0.62309012     0.12500
N4387       N  0.95800093  0.93439902  0.59846888     0.61300
H4388       H  0.98500429  0.93184166  0.55714816     0.08600
O4389       O  0.61399573  0.95522969  0.51143224    -0.40200
O4390       O  0.56899565  0.96460699  0.50158549    -0.39400
O4391       O  0.98319203  0.90942737  0.52244029    -0.39400
O4392       O  0.02410777  0.89771843  0.53418928    -0.37100
O4393       O  0.95080318  0.94665001  0.59941665    -0.38000
O4394       O  0.93630706  0.92587788  0.59584998    -0.34100
O4395       O  0.60522716  0.93525829  0.58459958    -0.35600
O4396       O  0.60099638  0.91379317  0.57895470    -0.39800
C4397       C  0.50800025  0.98822614  0.42047343    -0.13500
C4398       C  0.97993334  0.98469329  0.41857771     0.16800
C4399       C  0.97492412  0.97165206  0.41014523     0.03100
C4400       C  0.49712838  0.96168481  0.40824812    -0.12000
C4401       C  0.52818206  0.96561581  0.41440933    -0.03100
C4402       C  0.53359521  0.97921412  0.41971595     0.02400
C4403       C  0.95339078  0.99443023  0.42129141     0.09200
N4404       N  0.94377656  0.96715278  0.40414735     0.65600
H4405       H  0.49220238  0.95141938  0.40381097     0.18500
N4406       N  0.56469923  0.98403924  0.42495395     0.76000
H4407       H  0.51251838  0.99852950  0.42482801     0.10000
C4408       C  0.94867423  0.00121308  0.44280416     0.03700
C4409       C  0.92689361  0.01177380  0.44405657    -0.05000
C4410       C  0.90896594  0.01558814  0.42430028    -0.23400
C4411       C  0.91216638  0.00834029  0.40313490     0.12900
C4412       C  0.93441319  0.99785250  0.40173430    -0.12600
N4413       N  0.96615879  0.99759142  0.46349880     0.64600
H4414       H  0.92449543  0.01722278  0.46037629     0.12500
N4415       N  0.89534709  0.01231733  0.38235739     0.61300
H4416       H  0.93807928  0.99291071  0.38507929     0.08600
O4417       O  0.57238431  0.98648183  0.44602413    -0.40200
O4418       O  0.58243819  0.98786078  0.40841722    -0.39400
O4419       O  0.93714689  0.96442248  0.38299211    -0.39400
O4420       O  0.92474542  0.96390803  0.42027290    -0.37100
O4421       O  0.87243853  0.00537601  0.37502158    -0.38000
O4422       O  0.90644972  0.02140999  0.36942526    -0.34100
O4423       O  0.98579216  0.00568317  0.47228082    -0.35600
O4424       O  0.95820031  0.98738424  0.47505777    -0.39800
C4425       C  0.63995534  0.93093748  0.32109754    -0.13500
C4426       C  0.66829171  0.93821243  0.31940944     0.16800
C4427       C  0.67892417  0.94538745  0.33919732     0.03100
C4428       C  0.66151911  0.94515332  0.36021819    -0.12000
C4429       C  0.63314399  0.93782145  0.36223645    -0.03100
C4430       C  0.62229090  0.93073573  0.34215400     0.02400
C4431       C  0.68592615  0.93867206  0.29667593     0.09200
N4432       N  0.70800446  0.95265876  0.33844788     0.65600
H4433       H  0.67073224  0.95060612  0.37513380     0.18500
N4434       N  0.59310375  0.92353557  0.34252362     0.76000
H4435       H  0.63124444  0.92558321  0.30590644     0.10000
C4436       C  0.70112571  0.92723713  0.28742257     0.03700
C4437       C  0.71729347  0.92794940  0.26585746    -0.05000
C4438       C  0.71793769  0.93986744  0.25282432    -0.23400
C4439       C  0.70270851  0.95132873  0.26203941     0.12900
C4440       C  0.68722601  0.95070204  0.28394099    -0.12600
N4441       N  0.70005103  0.91476920  0.29961327     0.64600
H4442       H  0.72821964  0.91901760  0.25881555     0.12500
N4443       N  0.70302119  0.96369984  0.24947916     0.61300
H4444       H  0.67569418  0.95953681  0.29080221     0.08600
O4445       O  0.59365228  0.91093347  0.34325113    -0.40200
O4446       O  0.56752781  0.92951435  0.33739988    -0.39400
O4447       O  0.70734025  0.96526510  0.33816534    -0.39400
O4448       O  0.73396388  0.94663465  0.34212570    -0.37100
O4449       O  0.67880386  0.96732071  0.23793502    -0.38000
O4450       O  0.72491091  0.97197814  0.25336167    -0.34100
O4451       O  0.68069971  0.90593383  0.29301850    -0.35600
O4452       O  0.72204549  0.91170659  0.31379046    -0.39800
C4453       C  0.67759884  0.89466629  0.47849452    -0.13500
C4454       C  0.67442648  0.88245965  0.46657221     0.16800
C4455       C  0.65962750  0.88215822  0.44432573     0.03100
C4456       C  0.64691856  0.89386941  0.43478590    -0.12000
C4457       C  0.64875848  0.90602260  0.44706543    -0.03100
C4458       C  0.66475824  0.90644187  0.46895331     0.02400
C4459       C  0.68582033  0.86997004  0.47760514     0.09200
N4460       N  0.65713703  0.86997312  0.43129736     0.65600
H4461       H  0.63486683  0.89339014  0.41798939     0.18500
N4462       N  0.66560354  0.91841486  0.48267984     0.76000
H4463       H  0.68878647  0.89493870  0.49561562     0.10000
C4464       C  0.71828291  0.86783371  0.48189165     0.03700
C4465       C  0.72888657  0.85522914  0.48896466    -0.05000
C4466       C  0.70760871  0.84451197  0.49153501    -0.23400
C4467       C  0.67468745  0.84708423  0.48964891     0.12900
C4468       C  0.66408806  0.85976596  0.48257107    -0.12600
N4469       N  0.74107221  0.87799697  0.47710332     0.64600
H4470       H  0.75415264  0.85366857  0.49093554     0.12500
N4471       N  0.65180206  0.83687604  0.49379732     0.61300
H4472       H  0.63897682  0.86151962  0.48011597     0.08600
O4473       O  0.69092286  0.92506046  0.48390955    -0.40200
O4474       O  0.64294840  0.92112530  0.49643431    -0.39400
O4475       O  0.63079031  0.86407184  0.42997842    -0.39400
O4476       O  0.67987401  0.86619792  0.41841855    -0.37100
O4477       O  0.64045805  0.83545103  0.51419812    -0.38000
O4478       O  0.63877886  0.83109132  0.47656656    -0.34100
O4479       O  0.75517836  0.88368528  0.49395908    -0.35600
O4480       O  0.75093318  0.87961642  0.45632647    -0.39800
loop_ 
_geom_bond_atom_site_label_1 
_geom_bond_atom_site_label_2 
_geom_bond_distance 
_geom_bond_site_symmetry_2 
_ccdc_geom_bond_type 
O1           Ni9   1.937       .  S
O1           C11   1.287       .  A
O2           Ni9   1.937       .  S
O2           C12   1.285       .  A
O3           Ni9   1.898       .  S
O3           C13   1.278       .  A
O4           Ni9   1.906       .  S
O4           C14   1.279       .  A
O5          Ni10   1.926       .  S
O5           C14   1.283       .  A
O6          Ni10   1.923       .  S
O6           C13   1.282       .  A
O7          Ni10   1.918       .  S
O7           C12   1.282       .  A
O8          Ni10   1.911       .  S
O8           C11   1.279       .  A
Ni9         Ni10   2.382       .  S
C11        C2133   1.497       .  S
C12        C2189   1.502       .  S
C13        C2217   1.471       .  S
C14        C2161   1.490       .  S
O15         Ni23   1.941       .  S
O15          C25   1.286       .  A
O16         Ni23   1.940       .  S
O16          C26   1.286       .  A
O17         Ni23   1.893       .  S
O17          C27   1.277       .  A
O18         Ni23   1.902       .  S
O18          C28   1.277       .  A
O19         Ni24   1.931       .  S
O19          C28   1.285       .  A
O20         Ni24   1.931       .  S
O20          C27   1.284       .  A
O21         Ni24   1.912       .  S
O21          C26   1.279       .  A
O22         Ni24   1.908       .  S
O22          C25   1.280       .  A
Ni23        Ni24   2.383       .  S
C25        C2058   1.496       .  S
C26        C2114   1.487       .  S
C27        C2226   1.483       .  S
C28        C2077   1.480       .  S
O29         Ni37   1.937       .  S
O29          C39   1.285       .  A
O30         Ni37   1.937       .  S
O30          C40   1.286       .  A
O31         Ni37   1.894       .  S
O31          C41   1.275       .  A
O32         Ni37   1.900       .  S
O32          C42   1.276       .  A
O33         Ni38   1.924       .  S
O33          C42   1.282       .  A
O34         Ni38   1.924       .  S
O34          C41   1.285       .  A
O35         Ni38   1.914       .  S
O35          C40   1.279       .  A
O36         Ni38   1.900       .  S
O36          C39   1.279       .  A
Ni37        Ni38   2.386       .  S
C39        C1965   1.491       .  S
C40        C2198   1.484       .  S
C41        C2021   1.479       .  S
C42        C1993   1.463       .  S
O43         Ni51   1.938       .  S
O43          C53   1.286       .  A
O44         Ni51   1.935       .  S
O44          C54   1.285       .  A
O45         Ni51   1.901       .  S
O45          C55   1.278       .  A
O46         Ni51   1.917       .  S
O46          C56   1.281       .  A
O47         Ni52   1.924       .  S
O47          C56   1.283       .  A
O48         Ni52   1.919       .  S
O48          C55   1.282       .  A
O49         Ni52   1.916       .  S
O49          C54   1.282       .  A
O50         Ni52   1.911       .  S
O50          C53   1.280       .  A
Ni51        Ni52   2.385       .  S
C53        C1918   1.490       .  S
C54        C2105   1.498       .  S
C55        C2030   1.470       .  S
C56        C1946   1.489       .  S
O57         Ni65   1.938       .  S
O57          C67   1.286       .  A
O58         Ni65   1.936       .  S
O58          C68   1.286       .  A
O59         Ni65   1.890       .  S
O59          C69   1.275       .  A
O60         Ni65   1.895       .  S
O60          C70   1.276       .  A
O61         Ni66   1.935       .  S
O61          C70   1.285       .  A
O62         Ni66   1.936       .  S
O62          C69   1.286       .  A
O63         Ni66   1.912       .  S
O63          C68   1.279       .  A
O64         Ni66   1.899       .  S
O64          C67   1.278       .  A
Ni65        Ni66   2.386       .  S
C67        C1806   1.487       .  S
C68        C1853   1.490       .  S
C69        C1890   1.478       .  S
C70        C1825   1.476       .  S
O71         Ni79   1.943       .  S
O71          C81   1.287       .  A
O72         Ni79   1.946       .  S
O72          C82   1.287       .  A
O73         Ni79   1.895       .  S
O73          C83   1.278       .  A
O74         Ni79   1.907       .  S
O74          C84   1.278       .  A
O75         Ni80   1.934       .  S
O75          C84   1.287       .  A
O76         Ni80   1.936       .  S
O76          C83   1.285       .  A
O77         Ni80   1.906       .  S
O77          C82   1.278       .  A
O78         Ni80   1.903       .  S
O78          C81   1.279       .  A
Ni79        Ni80   2.381       .  S
C81        C1722   1.496       .  S
C82        C1769   1.488       .  S
C83        C1881   1.488       .  S
C84        C1741   1.494       .  S
O85         Ni93   1.936       .  S
O85          C95   1.286       .  A
O86         Ni93   1.940   1_556  S
O86          C96   1.286       .  A
O87         Ni93   1.906       .  S
O87          C97   1.278       .  A
O88         Ni93   1.919       .  S
O88          C98   1.281       .  A
O89         Ni94   1.925       .  S
O89          C98   1.283       .  A
O90         Ni94   1.921       .  S
O90          C97   1.281       .  A
O91         Ni94   1.906   1_556  S
O91          C96   1.279       .  A
O92         Ni94   1.904       .  S
O92          C95   1.279       .  A
Ni93        Ni94   2.385       .  S
C95        C1638   1.493       .  S
C96        C1862   1.492       .  S
C97        C1685   1.467       .  S
C98        C1657   1.485       .  S
O99        Ni107   1.941   1_554  S
O99         C109   1.286       .  A
O100       Ni107   1.935       .  S
O100        C110   1.287       .  A
O101       Ni107   1.894       .  S
O101        C111   1.275       .  A
O102       Ni107   1.902       .  S
O102        C112   1.278       .  A
O103       Ni108   1.935       .  S
O103        C112   1.285       .  A
O104       Ni108   1.931   1_554  S
O104        C111   1.284   1_554  A
O105       Ni108   1.921       .  S
O105        C110   1.281       .  A
O106       Ni108   1.906   1_554  S
O106        C109   1.279       .  A
Ni107      Ni108   2.386       .  S
C109       C1573   1.489       .  S
C110       C1778   1.501       .  S
C111       C1694   1.463       .  S
C112       C1610   1.484       .  S
O113       Ni121   1.942       .  S
O113        C123   1.287       .  A
O114       Ni121   1.937       .  S
O114        C124   1.286       .  A
O115       Ni121   1.903       .  S
O115        C125   1.278       .  A
O116       Ni121   1.893       .  S
O116        C126   1.275       .  A
O117       Ni122   1.930       .  S
O117        C126   1.283       .  A
O118       Ni122   1.932       .  S
O118        C125   1.285       .  A
O119       Ni122   1.914       .  S
O119        C124   1.280       .  A
O120       Ni122   1.908       .  S
O120        C123   1.279       .  A
Ni121      Ni122   2.385       .  S
C123       C1470   1.493       .  S
C124       C1517   1.496       .  S
C125       C1498   1.488       .  S
C126       C1554   1.463       .  S
O127       Ni135   1.944       .  S
O127        C137   1.287       .  A
O128       Ni135   1.941       .  S
O128        C138   1.287       .  A
O129       Ni135   1.890       .  S
O129        C139   1.275       .  A
O130       Ni135   1.887       .  S
O130        C140   1.276       .  A
O131       Ni136   1.945       .  S
O131        C140   1.287       .  A
O132       Ni136   1.943       .  S
O132        C139   1.286       .  A
O133       Ni136   1.913       .  S
O133        C138   1.279       .  A
O134       Ni136   1.903       .  S
O134        C137   1.279       .  A
Ni135      Ni136   2.382       .  S
C137       C1414   1.496       .  S
C138       C1433   1.492       .  S
C139       C2170   1.477       .  S
C140       C1545   1.491       .  S
O141       Ni149   1.936       .  S
O141        C151   1.285       .  A
O142       Ni149   1.935       .  S
O142        C152   1.286       .  A
O143       Ni149   1.910       .  S
O143        C153   1.280       .  A
O144       Ni149   1.900       .  S
O144        C154   1.278       .  A
O145       Ni150   1.928       .  S
O145        C154   1.283       .  A
O146       Ni150   1.935       .  S
O146        C153   1.285       .  A
O147       Ni150   1.919       .  S
O147        C152   1.281       .  A
O148       Ni150   1.907       .  S
O148        C151   1.280       .  A
Ni149      Ni150   2.383       .  S
C151       C1321   1.491       .  S
C152       C1442   1.501       .  S
C153       C1349   1.495       .  S
C154       C1386   1.473       .  S
O155       Ni163   1.941       .  S
O155        C165   1.287       .  A
O156       Ni163   1.941       .  S
O156        C166   1.287       .  A
O157       Ni163   1.907       .  S
O157        C167   1.278       .  A
O158       Ni163   1.900       .  S
O158        C168   1.277       .  A
O159       Ni164   1.928       .  S
O159        C168   1.285       .  A
O160       Ni164   1.931       .  S
O160        C167   1.285       .  A
O161       Ni164   1.908       .  S
O161        C166   1.278       .  A
O162       Ni164   1.900       .  S
O162        C165   1.277       .  A
Ni163      Ni164   2.383       .  S
C165       C1293   1.486       .  S
C166       C1526   1.492       .  S
C167       C1750   1.487       .  S
C168       C1377   1.484       .  S
O169       Ni177   1.944       .  S
O169        C179   1.287   1_554  A
O170       Ni177   1.941       .  S
O170        C180   1.287       .  A
O171       Ni177   1.903       .  S
O171        C181   1.278       .  A
O172       Ni177   1.892       .  S
O172        C182   1.275       .  A
O173       Ni178   1.930       .  S
O173        C182   1.283       .  A
O174       Ni178   1.936       .  S
O174        C181   1.285       .  A
O175       Ni178   1.918       .  S
O175        C180   1.280       .  A
O176       Ni178   1.908   1_556  S
O176        C179   1.280       .  A
Ni177      Ni178   2.384       .  S
C179       C1209   1.500       .  S
C180       C1237   1.500       .  S
C181       C1666   1.490       .  S
C182       C1265   1.463       .  S
O183       Ni191   1.934       .  S
O183        C193   1.284   1_554  A
O184       Ni191   1.933       .  S
O184        C194   1.285       .  A
O185       Ni191   1.898       .  S
O185        C195   1.277       .  A
O186       Ni191   1.892       .  S
O186        C196   1.277       .  A
O187       Ni192   1.930       .  S
O187        C196   1.284       .  A
O188       Ni192   1.937       .  S
O188        C195   1.286       .  A
O189       Ni192   1.921       .  S
O189        C194   1.281       .  A
O190       Ni192   1.910   1_556  S
O190        C193   1.279       .  A
Ni191      Ni192   2.384       .  S
C193       C1134   1.479       .  S
C194       C1181   1.495       .  S
C195       C1153   1.481       .  S
C196       C1274   1.483       .  S
O197       Ni205   1.941       .  S
O197        C207   1.287       .  A
O198       Ni205   1.948       .  S
O198        C208   1.289       .  A
O199       Ni205   1.906       .  S
O199        C209   1.278       .  A
O200       Ni205   1.899       .  S
O200        C210   1.276       .  A
O201       Ni206   1.936       .  S
O201        C210   1.285       .  A
O202       Ni206   1.939       .  S
O202        C209   1.286       .  A
O203       Ni206   1.914       .  S
O203        C208   1.279       .  A
O204       Ni206   1.907       .  S
O204        C207   1.277       .  A
Ni205      Ni206   2.382       .  S
C207       C1050   1.494       .  S
C208       C1246   1.505       .  S
C209       C1069   1.491       .  S
C210       C1097   1.473       .  S
O211       Ni219   1.940       .  S
O211        C221   1.287       .  A
O212       Ni219   1.947       .  S
O212        C222   1.289       .  A
O213       Ni219   1.901       .  S
O213        C223   1.277       .  A
O214       Ni219   1.893       .  S
O214        C224   1.275       .  A
O215       Ni220   1.941       .  S
O215        C224   1.286       .  A
O216       Ni220   1.947       .  S
O216        C223   1.288       .  A
O217       Ni220   1.910       .  S
O217        C222   1.278       .  A
O218       Ni220   1.908       .  S
O218        C221   1.279       .  A
Ni219      Ni220   2.385       .  S
C221       C1013   1.489       .  S
C222       C1190   1.498       .  S
C223       C1937   1.486       .  S
C224       C1106   1.476       .  S
O225      Ni2473   1.934       .  S
O225       C2475   1.286       .  A
O226       Ni233   1.934       .  S
O226        C236   1.285       .  A
O227       Ni233   1.898       .  S
O227        C237   1.278       .  A
O228      Ni2473   1.905       .  S
O228        C238   1.278       .  A
O229       Ni234   1.939       .  S
O229       C2478   1.286       .  A
O230       Ni234   1.935       .  S
O230        C237   1.284       .  A
O231       Ni234   1.915       .  S
O231        C236   1.281       .  A
O232       Ni234   1.916       .  S
O232        C235   1.280       .  A
Ni233      O2465   1.934       .  S
Ni233      O2468   1.905       .  S
Ni233      Ni234   2.382       .  S
C235       O2465   1.286       .  A
C235       C4382   1.494       .  S
C236        C957   1.497       .  S
C237        C985   1.481       .  S
C238       O2469   1.286   1_455  A
C238       C1358   1.483       .  S
O239       Ni247   1.945       .  S
O239        C249   1.287       .  A
O240       Ni247   1.943       .  S
O240        C250   1.288       .  A
O241       Ni247   1.897       .  S
O241        C251   1.277       .  A
O242       Ni247   1.908       .  S
O242        C252   1.278       .  A
O243       Ni248   1.929       .  S
O243        C252   1.286       .  A
O244       Ni248   1.931       .  S
O244        C251   1.284       .  A
O245       Ni248   1.915       .  S
O245        C250   1.279       .  A
O246       Ni248   1.901       .  S
O246        C249   1.279       .  A
Ni247      Ni248   2.382       .  S
C249       C2049   1.497       .  S
C250        C938   1.499       .  S
C251        C994   1.472       .  S
C252        C901   1.493       .  S
O253       Ni261   1.934       .  S
O253        C263   1.285       .  A
O254       Ni261   1.935       .  S
O254        C264   1.286       .  A
O255       Ni261   1.904       .  S
O255        C265   1.278       .  A
O256       Ni261   1.913       .  S
O256        C266   1.279       .  A
O257       Ni262   1.925       .  S
O257        C266   1.285       .  A
O258       Ni262   1.925       .  S
O258        C265   1.282       .  A
O259       Ni262   1.914       .  S
O259        C264   1.280       .  A
O260       Ni262   1.898       .  S
O260        C263   1.279       .  A
Ni261      Ni262   2.382       .  S
C263       C1974   1.490       .  S
C264        C966   1.499       .  S
C265        C873   1.472       .  S
C266        C854   1.492       .  S
O267      Ni2515   1.944   1_554  S
O267       C2517   1.287       .  A
O268       Ni275   1.945       .  S
O268        C278   1.287       .  A
O269       Ni275   1.892       .  S
O269        C279   1.277       .  A
O270      Ni2515   1.893       .  S
O270        C280   1.277       .  A
O271       Ni276   1.941       .  S
O271       C2520   1.286       .  A
O272       Ni276   1.935       .  S
O272        C279   1.285       .  A
O273       Ni276   1.912       .  S
O273        C278   1.280       .  A
O274       Ni276   1.903   1_554  S
O274        C277   1.279       .  A
Ni275      O2507   1.940   1_556  S
Ni275      O2510   1.899       .  S
Ni275      Ni276   2.382       .  S
C277       O2507   1.285       .  A
C277       C4149   1.484       .  S
C278        C929   1.500       .  S
C279        C882   1.479       .  S
C280       O2511   1.286       .  A
C280       C1162   1.489       .  S
O281       Ni289   1.938       .  S
O281        C291   1.286       .  A
O282       Ni289   1.938       .  S
O282       C2532   1.287       .  A
O283       Ni289   1.895       .  S
O283        C293   1.276       .  A
O284       Ni289   1.890       .  S
O284       C2534   1.275       .  A
O285       Ni290   1.929   1_455  S
O285        C294   1.283       .  A
O286      Ni2530   1.936       .  S
O286        C293   1.285       .  A
O287       Ni290   1.918   1_455  S
O287        C292   1.280   1_455  A
O288      Ni2530   1.908       .  S
O288        C291   1.279       .  A
Ni289     Ni2530   2.383       .  S
Ni290      O2526   1.929       .  S
Ni290      O2528   1.911       .  S
Ni290     Ni2529   2.385       .  S
C291       C1218   1.495       .  S
C292       O2522   1.288       .  A
C292        C789   1.501   1_655  S
C293       C1834   1.481       .  S
C294       O2524   1.274   1_455  A
C294        C817   1.460       .  S
O295       Ni303   1.940       .  S
O295        C305   1.286       .  A
O296       Ni303   1.939       .  S
O296        C306   1.286       .  A
O297       Ni303   1.892       .  S
O297        C307   1.275       .  A
O298       Ni303   1.887       .  S
O298        C308   1.277       .  A
O299       Ni304   1.937       .  S
O299        C308   1.285       .  A
O300       Ni304   1.942       .  S
O300        C307   1.287       .  A
O301       Ni304   1.916       .  S
O301        C306   1.282       .  A
O302       Ni304   1.906       .  S
O302        C305   1.278       .  A
Ni303      Ni304   2.384       .  S
C305       C1125   1.480       .  S
C306        C770   1.502       .  S
C307        C910   1.478       .  S
C308        C826   1.487       .  S
O309       Ni317   1.946       .  S
O309        C319   1.288       .  A
O310       Ni317   1.943       .  S
O310        C320   1.288       .  A
O311       Ni317   1.899       .  S
O311        C321   1.275       .  A
O312       Ni317   1.888       .  S
O312        C322   1.275       .  A
O313       Ni318   1.933       .  S
O313        C322   1.285       .  A
O314       Ni318   1.936       .  S
O314        C321   1.286       .  A
O315       Ni318   1.916       .  S
O315        C320   1.280       .  A
O316       Ni318   1.899       .  S
O316        C319   1.278       .  A
Ni317      Ni318   2.385       .  S
C319       C1041   1.492       .  S
C320        C798   1.500       .  S
C321        C705   1.474       .  S
C322        C733   1.472       .  S
O323       Ni331   1.951       .  S
O323        C333   1.289       .  A
O324       Ni331   1.948       .  S
O324       C2574   1.288       .  A
O325       Ni331   1.901       .  S
O325        C335   1.278       .  A
O326       Ni331   1.890       .  S
O326       C2576   1.275       .  A
O327       Ni332   1.930   1_455  S
O327        C336   1.284   1_455  A
O328      Ni2572   1.937       .  S
O328        C335   1.286       .  A
O329       Ni332   1.911       .  S
O329        C334   1.280       .  A
O330      Ni2572   1.901       .  S
O330        C333   1.278       .  A
Ni331     Ni2572   2.383       .  S
Ni332      O2568   1.937       .  S
Ni332      O2570   1.910       .  S
Ni332     Ni2571   2.384       .  S
C333       C1022   1.494       .  S
C334       O2564   1.287       .  A
C334        C761   1.503       .  S
C335       C2086   1.488       .  S
C336       O2566   1.275       .  A
C336        C742   1.473   1_655  S
O337       Ni345   1.951       .  S
O337        C347   1.289       .  A
O338       Ni345   1.949       .  S
O338        C348   1.288       .  A
O339       Ni345   1.877       .  S
O339        C349   1.273       .  A
O340       Ni345   1.886       .  S
O340        C350   1.275       .  A
O341       Ni346   1.949       .  S
O341        C350   1.288       .  A
O342       Ni346   1.947       .  S
O342        C349   1.288       .  A
O343       Ni346   1.899       .  S
O343        C348   1.277       .  A
O344       Ni346   1.889       .  S
O344        C347   1.276       .  A
Ni345      Ni346   2.381       .  S
C347       C1797   1.495       .  S
C348        C649   1.490       .  S
C349        C677   1.480       .  S
C350        C714   1.494       .  S
O351       Ni359   1.934       .  S
O351        C361   1.285       .  A
O352       Ni359   1.934       .  S
O352        C362   1.286       .  A
O353       Ni359   1.897       .  S
O353        C363   1.276       .  A
O354      Ni2599   1.889   1_455  S
O354       C2604   1.276       .  A
O355       Ni360   1.930       .  S
O355        C364   1.284       .  A
O356       Ni360   1.929       .  S
O356        C363   1.282       .  A
O357       Ni360   1.920       .  S
O357        C362   1.281       .  A
O358       Ni360   1.912       .  S
O358        C361   1.282       .  A
Ni359      O2594   1.901       .  S
Ni359      Ni360   2.385       .  S
C361       C1713   1.496       .  S
C362        C630   1.496       .  S
C363        C686   1.462       .  S
C364       O2594   1.279       .  A
C364       C3729   1.485       .  S
O365      Ni2613   1.937       .  S
O365       C2615   1.285       .  A
O366       Ni373   1.946       .  S
O366        C376   1.288       .  A
O367       Ni373   1.899       .  S
O367        C377   1.277       .  A
O368      Ni2613   1.901       .  S
O368        C378   1.279       .  A
O369       Ni374   1.932       .  S
O369       C2618   1.284       .  A
O370       Ni374   1.931       .  S
O370        C377   1.284       .  A
O371       Ni374   1.904       .  S
O371        C376   1.277       .  A
O372       Ni374   1.899       .  S
O372        C375   1.279       .  A
Ni373      O2605   1.942       .  S
Ni373      O2608   1.903       .  S
Ni373      Ni374   2.384       .  S
C375       O2605   1.286       .  A
C375       C3869   1.491       .  S
C376        C658   1.495       .  S
C377        C593   1.474       .  S
C378       O2609   1.286   1_455  A
C378       C1078   1.489       .  S
O379       Ni387   1.946       .  S
O379        C389   1.288       .  A
O380       Ni387   1.942       .  S
O380        C390   1.287       .  A
O381       Ni387   1.899       .  S
O381        C391   1.276       .  A
O382       Ni387   1.901       .  S
O382        C392   1.278       .  A
O383       Ni388   1.941       .  S
O383        C392   1.286       .  A
O384       Ni388   1.935       .  S
O384        C391   1.284       .  A
O385       Ni388   1.909       .  S
O385        C390   1.280       .  A
O386       Ni388   1.904       .  S
O386        C389   1.278       .  A
Ni387      Ni388   2.383       .  S
C389       C1582   1.489       .  S
C390        C621   1.500       .  S
C391        C602   1.471       .  S
C392        C574   1.494       .  S
O393       Ni401   1.937       .  S
O393        C403   1.286       .  A
O394       Ni401   1.937       .  S
O394        C404   1.286       .  A
O395       Ni401   1.905       .  S
O395        C405   1.278       .  A
O396       Ni401   1.898       .  S
O396        C406   1.278       .  A
O397       Ni402   1.936       .  S
O397        C406   1.285       .  A
O398       Ni402   1.935       .  S
O398        C405   1.285       .  A
O399       Ni402   1.916       .  S
O399        C404   1.280       .  A
O400       Ni402   1.905       .  S
O400        C403   1.278       .  A
Ni401      Ni402   2.383       .  S
C403       C1330   1.489       .  S
C404        C518   1.494       .  S
C405        C845   1.478       .  S
C406        C546   1.489       .  S
O407       Ni415   1.942       .  S
O407        C417   1.287       .  A
O408       Ni415   1.946   1_554  S
O408        C418   1.287       .  A
O409       Ni415   1.915       .  S
O409        C419   1.280       .  A
O410       Ni415   1.904       .  S
O410        C420   1.278       .  A
O411      Ni2656   1.925   1_455  S
O411       C2660   1.283       .  A
O412       Ni416   1.930       .  S
O412        C419   1.284       .  A
O413      Ni2656   1.913       .  S
O413       C2658   1.281   1_556  A
O414       Ni416   1.902       .  S
O414        C417   1.278       .  A
Ni415      Ni416   2.384       .  S
Ni416      O2651   1.926       .  S
Ni416      O2653   1.910       .  S
C417       C1302   1.491       .  S
C418       O2653   1.280   1_554  A
C418       C2721   1.497       .  S
C419       C1601   1.488       .  S
C420       O2651   1.283       .  A
C420       C2777   1.473       .  S
O421       Ni429   1.930       .  S
O421        C431   1.285       .  A
O422       Ni429   1.931       .  S
O422        C432   1.285       .  A
O423       Ni429   1.902       .  S
O423        C433   1.277       .  A
O424       Ni429   1.897       .  S
O424       C2674   1.276       .  A
O425      Ni2670   1.927   1_455  S
O425        C434   1.282       .  A
O426       Ni430   1.922       .  S
O426        C433   1.284       .  A
O427      Ni2670   1.923   1_455  S
O427       C2672   1.282   1_455  A
O428       Ni430   1.917       .  S
O428        C431   1.281       .  A
Ni429      Ni430   2.386       .  S
Ni430      O2665   1.922       .  S
Ni430      O2667   1.919       .  S
C431       C1405   1.488       .  S
C432       O2667   1.281       .  A
C432        C509   1.494       .  S
C433       C2002   1.484       .  S
C434       O2664   1.278   1_455  A
C434        C462   1.469       .  S
O435       Ni443   1.947       .  S
O435        C445   1.289       .  A
O436       Ni443   1.950       .  S
O436        C446   1.288       .  A
O437       Ni443   1.900       .  S
O437        C447   1.276       .  A
O438       Ni443   1.897       .  S
O438        C448   1.277       .  A
O439       Ni444   1.940       .  S
O439        C448   1.286       .  A
O440       Ni444   1.941       .  S
O440        C447   1.287       .  A
O441       Ni444   1.906       .  S
O441        C446   1.279       .  A
O442       Ni444   1.901       .  S
O442        C445   1.276       .  A
Ni443      Ni444   2.380       .  S
C445       C1461   1.499       .  S
C446        C490   1.502       .  S
C447        C565   1.482       .  S
C448        C453   1.483       .  S
C449        C450   1.404       .  A
C449        C454   1.403       .  A
C449        H459   1.080       .  S
C450        C455   1.480       .  S
C450        C451   1.406       .  A
C451        C452   1.399       .  A
C451        N456   1.430       .  S
C452        C453   1.408       .  A
C452        H457   1.080       .  S
C453        C454   1.410       .  A
C454        N458   1.428       .  S
C455        C460   1.410       .  A
C455        C464   1.402       .  A
N456        O471   1.262       .  A
N456        O472   1.262       .  A
N458        O470   1.262       .  A
N458       O2709   1.262       .  A
C460        C461   1.403       .  A
C460        N465   1.429       .  S
C461        C462   1.402       .  A
C461       H2706   1.081       .  S
C462        C463   1.407       .  A
C463        C464   1.399       .  A
C463        N467   1.430       .  S
C464        H468   1.081       .  S
N465        O476   1.262       .  A
N465       O2715   1.262       .  A
H466       C2701   1.080       .  S
N467        O473   1.262       .  A
N467        O474   1.262       .  A
O469       N2698   1.262       .  A
O475       N2705   1.262       .  A
C477        C482   1.412       .  A
C477       C2718   1.410       .  A
C477        H487   1.080       .  S
C478        C483   1.501       .  S
C478        C479   1.410       .  A
C478       C2717   1.410   1_455  A
C479        C480   1.403       .  A
C479        N484   1.429       .  S
C480        C481   1.409   1_455  A
C480        H485   1.079       .  S
C481       C2658   1.497       .  S
C481       C2722   1.413       .  A
C482       C2721   1.414       .  A
C482        N486   1.428       .  S
C483        C488   1.409       .  A
C483        C492   1.410       .  A
N484        O499   1.262       .  A
N484        O500   1.262       .  A
N486        O497   1.262       .  A
N486        O498   1.262       .  A
C488        C489   1.401       .  A
C488        N493   1.429       .  S
C489        C490   1.410       .  A
C489        H494   1.080       .  S
C490        C491   1.416       .  A
C491        C492   1.412       .  A
C491        N495   1.428       .  S
C492        H496   1.078       .  S
N493       O2743   1.262   1_455  A
N493       O2744   1.262       .  A
N495        O501   1.262       .  A
N495        O502   1.262       .  A
O503       N2733   1.262       .  A
O504       N2733   1.262       .  A
C505        C506   1.405       .  A
C505        C510   1.404       .  A
C505        H515   1.080       .  S
C506        C511   1.495       .  S
C506       C2747   1.414       .  A
C507        C508   1.405       .  A
C507       C2746   1.409       .  A
C507        N512   1.428       .  S
C508        C509   1.408       .  A
C508        H513   1.079       .  S
C509       C2750   1.418       .  A
C510       C2749   1.413       .  A
C510        N514   1.428       .  S
C511        C516   1.414       .  A
C511        C520   1.403       .  A
N512        O527   1.262       .  A
N512        O528   1.262       .  A
N514        O525   1.262       .  A
N514        O526   1.262       .  A
C516        C517   1.409       .  A
C516        N521   1.431       .  S
C517        C518   1.407   1_554  A
C517        H522   1.080       .  S
C518        C519   1.415       .  A
C519        C520   1.402   1_556  A
C519       N2763   1.429       .  S
C520       H2764   1.081       .  S
N521        O531   1.262       .  A
N521        O532   1.262       .  A
N523       C2759   1.429       .  S
N523        O530   1.262       .  A
N523       O2769   1.262       .  A
H524       C2760   1.080       .  S
O529       N2763   1.262       .  A
C533        C534   1.400       .  A
C533        C538   1.396       .  A
C533        H543   1.081       .  S
C534        C539   1.476       .  S
C534       C2775   1.409       .  A
C535        C536   1.403       .  A
C535       C2774   1.409       .  A
C535        N540   1.429       .  S
C536       C2777   1.405       .  A
C536        H541   1.081       .  S
C537       C2660   1.474       .  S
C537        C538   1.409       .  A
C537       C2776   1.405       .  A
C538        N542   1.429       .  S
C539        C544   1.404       .  A
C539        C548   1.403       .  A
N540        O555   1.262       .  A
N540        O556   1.262       .  A
N542        O553   1.262   1_556  A
N542        O554   1.262   1_455  A
C544        C545   1.398       .  A
C544        N549   1.429       .  S
C545        C546   1.411       .  A
C545        H550   1.080       .  S
C546        C547   1.413       .  A
C547        C548   1.403       .  A
C547       N2791   1.428       .  S
C548       H2792   1.080       .  S
N549        O559   1.262       .  A
N549        O560   1.262       .  A
N551       C2787   1.428       .  S
N551        O558   1.262       .  A
N551       O2797   1.262       .  A
H552       C2788   1.081       .  S
O557       N2791   1.262       .  A
C561        C562   1.408       .  A
C561        C566   1.405       .  A
C561        H571   1.078       .  S
C562        C567   1.493       .  S
C562        C563   1.410       .  A
C563        C564   1.401       .  A
C563        N568   1.429       .  S
C564        C565   1.405       .  A
C564        H569   1.079       .  S
C565        C566   1.411       .  A
C566        N570   1.429       .  S
C567        C572   1.407       .  A
C567        C576   1.409       .  A
N568        O583   1.262       .  A
N568        O584   1.262       .  A
N570        O581   1.262       .  A
N570        O582   1.262       .  A
C572        C573   1.398       .  A
C572        N577   1.429       .  S
C573        C574   1.410       .  A
C573        H578   1.079       .  S
C574        C575   1.414       .  A
C575        C576   1.408       .  A
C575        N579   1.429       .  S
C576        H580   1.078       .  S
N577        O587   1.262       .  A
N577        O588   1.262       .  A
N579        O585   1.262       .  A
N579        O586   1.262       .  A
C589        C590   1.402       .  A
C589        C594   1.398       .  A
C589        H599   1.078       .  S
C590        C595   1.485       .  S
C590        C591   1.414       .  A
C591        C592   1.402       .  A
C591        N596   1.429       .  S
C592        C593   1.400       .  A
C592        H597   1.079       .  S
C593        C594   1.413       .  A
C594        N598   1.430       .  S
C595        C600   1.413       .  A
C595        C604   1.402       .  A
N596        O611   1.262       .  A
N596        O612   1.262       .  A
N598       O2849   1.262       .  A
N598       O2850   1.262       .  A
C600        C601   1.405       .  A
C600        N605   1.429       .  S
C601        C602   1.402       .  A
C601        H606   1.079       .  S
C602        C603   1.408       .  A
C603        C604   1.397       .  A
C603        N607   1.429       .  S
C604        H608   1.079       .  S
N605        O615   1.262       .  A
N605        O616   1.262       .  A
N607        O613   1.262       .  A
N607        O614   1.262       .  A
O609       N2838   1.262   1_455  A
O610       N2838   1.262   1_455  A
C617        C618   1.404       .  A
C617        C622   1.409       .  A
C617        H627   1.079       .  S
C618        C623   1.488       .  S
C618        C619   1.405       .  A
C619        C620   1.402       .  A
C619        N624   1.429       .  S
C620        C621   1.412       .  A
C620        H625   1.079       .  S
C621        C622   1.418       .  A
C622        N626   1.429       .  S
C623        C628   1.408       .  A
C623        C632   1.402       .  A
N624        O639   1.262       .  A
N624        O640   1.262       .  A
N626        O637   1.262       .  A
N626        O638   1.262       .  A
C628        C629   1.405       .  A
C628        N633   1.428       .  S
C629        C630   1.408       .  A
C629        H634   1.079       .  S
C630        C631   1.418       .  A
C631        C632   1.405       .  A
C631        N635   1.429       .  S
C632        H636   1.080       .  S
N633        O643   1.262       .  A
N633        O644   1.262       .  A
N635        O641   1.262       .  A
N635        O642   1.262       .  A
C645        C646   1.407       .  A
C645        C650   1.409       .  A
C645        H655   1.079       .  S
C646        C651   1.494       .  S
C646        C647   1.410       .  A
C647        C648   1.401       .  A
C647        N652   1.430       .  S
C648        C649   1.407       .  A
C648        H653   1.080       .  S
C649        C650   1.412       .  A
C650        N654   1.428       .  S
C651        C656   1.412       .  A
C651        C660   1.402       .  A
N652        O667   1.262       .  A
N652        O668   1.262       .  A
N654        O665   1.262       .  A
N654        O666   1.262       .  A
C656        C657   1.408       .  A
C656        N661   1.428       .  S
C657        C658   1.407       .  A
C657        H662   1.080       .  S
C658        C659   1.419       .  A
C659        C660   1.402       .  A
C659        N663   1.429       .  S
C660        H664   1.079       .  S
N661        O671   1.262       .  A
N661        O672   1.262       .  A
N663        O669   1.262       .  A
N663        O670   1.262       .  A
C673        C674   1.406       .  A
C673        C678   1.405       .  A
C673        H683   1.081       .  S
C674        C679   1.474       .  S
C674        C675   1.402       .  A
C675        C676   1.393       .  A
C675        N680   1.430       .  S
C676        C677   1.409       .  A
C676        H681   1.081       .  S
C677        C678   1.409       .  A
C678        N682   1.427       .  S
C679        C684   1.412       .  A
C679        C688   1.399       .  A
N680        O695   1.262       .  A
N680        O696   1.262       .  A
N682        O693   1.262       .  A
N682        O694   1.262       .  A
C684        C685   1.401       .  A
C684        N689   1.431       .  S
C685        C686   1.399       .  A
C685        H690   1.080       .  S
C686        C687   1.408       .  A
C687        C688   1.398       .  A
C687        N691   1.429       .  S
C688        H692   1.080       .  S
N689        O699   1.262       .  A
N689        O700   1.262       .  A
N691        O697   1.262       .  A
N691        O698   1.262       .  A
C701        C702   1.407       .  A
C701        C706   1.401       .  A
C701        H711   1.079       .  S
C702        C707   1.489       .  S
C702        C703   1.411       .  A
C703        C704   1.403       .  A
C703        N708   1.429       .  S
C704        C705   1.404       .  A
C704        H709   1.079       .  S
C705        C706   1.408       .  A
C706        N710   1.429       .  S
C707        C712   1.406       .  A
C707        C716   1.409       .  A
N708        O723   1.262       .  A
N708        O724   1.262       .  A
N710        O721   1.262       .  A
N710        O722   1.261       .  A
C712        C713   1.394       .  A
C712        N717   1.431       .  S
C713        C714   1.411       .  A
C713        H718   1.079       .  S
C714        C715   1.413       .  A
C715        C716   1.409       .  A
C715        N719   1.428       .  S
C716        H720   1.078       .  S
N717        O727   1.262       .  A
N717        O728   1.262       .  A
N719        O725   1.262       .  A
N719        O726   1.262       .  A
C729        C730   1.403       .  A
C729        C734   1.402       .  A
C729       H2979   1.079       .  S
C730        C735   1.471       .  S
C730        C731   1.404       .  A
C731        C732   1.394       .  A
C731        N736   1.429       .  S
C732        C733   1.405       .  A
C732        H737   1.079       .  S
C733        C734   1.409       .  A
C734        N738   1.428       .  S
C735        C740   1.408       .  A
C735        C744   1.396       .  A
N736        O751   1.262       .  A
N736        O752   1.262       .  A
N738        O750   1.262       .  A
N738       O2989   1.262       .  A
H739       C2969   1.078       .  S
C740        C741   1.403       .  A
C740        N745   1.428       .  S
C741        C742   1.403       .  A
C741       H2986   1.079       .  S
C742        C743   1.414       .  A
C743        C744   1.392       .  A
C743        N747   1.429   1_455  S
C744        H748   1.080       .  S
N745        O756   1.262       .  A
N745       O2995   1.262       .  A
H746       C2981   1.079       .  S
N747        O753   1.262       .  A
N747        O754   1.261       .  A
O749       N2978   1.262       .  A
O755       N2985   1.262       .  A
C757        C758   1.407   1_655  A
C757       C3002   1.410       .  A
C757       H3007   1.079       .  S
C758        C763   1.497       .  S
C758        C759   1.407       .  A
C759        C760   1.403       .  A
C759        N764   1.429       .  S
C760        C761   1.412   1_455  A
C760        H765   1.079       .  S
C761       C3002   1.417       .  A
C762       C2997   1.409       .  A
C762       C3001   1.415       .  A
C762        N766   1.429       .  S
C763        C768   1.408       .  A
C763        C772   1.407       .  A
N764        O779   1.262       .  A
N764        O780   1.262       .  A
N766        O777   1.262       .  A
N766        O778   1.262       .  A
H767       C2997   1.079       .  S
C768        C769   1.403       .  A
C768        N773   1.429   1_455  S
C769        C770   1.411       .  A
C769        H774   1.079       .  S
C770        C771   1.417       .  A
C771        C772   1.409       .  A
C771        N775   1.428       .  S
C772        H776   1.079       .  S
N773        O784   1.262       .  A
N773       O3023   1.262       .  A
N775        O781   1.262       .  A
N775        O782   1.262       .  A
O783       N3013   1.262       .  A
C785        C786   1.402       .  A
C785        C790   1.406       .  A
C785        H795   1.080       .  S
C786        C791   1.494       .  S
C786        C787   1.411       .  A
C787        C788   1.409       .  A
C787        N792   1.429       .  S
C788        C789   1.408       .  A
C788       H3033   1.079   1_455  S
C789        C790   1.419       .  A
C790        N794   1.429       .  S
C791        C796   1.411       .  A
C791        C800   1.401       .  A
N792        O808   1.262       .  A
N792       O3047   1.262   1_455  A
H793       C3028   1.080       .  S
N794        O805   1.262       .  A
N794        O806   1.262       .  A
C796        C797   1.409       .  A
C796        N801   1.429       .  S
C797        C798   1.409       .  A
C797        H802   1.080       .  S
C798        C799   1.419       .  A
C799        C800   1.406       .  A
C799        N803   1.429       .  S
C800        H804   1.081       .  S
N801        O811   1.262       .  A
N801        O812   1.262       .  A
N803        O809   1.262       .  A
N803       O3050   1.262       .  A
O807       N3032   1.262       .  A
O810       N3043   1.262       .  A
C813        C814   1.403       .  A
C813        C818   1.393       .  A
C813       H3063   1.080       .  S
C814        C819   1.478       .  S
C814        C815   1.410       .  A
C815        C816   1.403       .  A
C815        N820   1.428       .  S
C816        C817   1.402       .  A
C816        H821   1.080       .  S
C817        C818   1.406       .  A
C818       N3062   1.430       .  S
C819        C824   1.404       .  A
C819        C828   1.406       .  A
N820        O835   1.262       .  A
N820        O836   1.261       .  A
N822       C3058   1.430       .  S
N822        O833   1.262       .  A
N822        O834   1.262       .  A
H823       C3053   1.081       .  S
C824        C825   1.389       .  A
C824        N829   1.430       .  S
C825        C826   1.409       .  A
C825        H830   1.079       .  S
C826        C827   1.415       .  A
C827        C828   1.407       .  A
C827        N831   1.429       .  S
C828        H832   1.078       .  S
N829        O839   1.262       .  A
N829        O840   1.262       .  A
N831        O837   1.262       .  A
N831        O838   1.262       .  A
C841        C842   1.403   1_545  A
C841        C846   1.400       .  A
C841        H851   1.078       .  S
C842        C847   1.485       .  S
C842        C843   1.410   1_565  A
C843        C844   1.406       .  A
C843        N848   1.429   1_545  S
C844        C845   1.405       .  A
C844        H849   1.076       .  S
C845        C846   1.409       .  A
C846        N850   1.429       .  S
C847        C852   1.408       .  A
C847        C856   1.401       .  A
N848        O863   1.262       .  A
N848        O864   1.262   1_565  A
N850        O861   1.262       .  A
N850        O862   1.262       .  A
C852        C853   1.400       .  A
C852        N857   1.429   1_565  S
C853        C854   1.406       .  A
C853        H858   1.079       .  S
C854        C855   1.420       .  A
C855        C856   1.404       .  A
C855        N859   1.429       .  S
C856        H860   1.079       .  S
N857        O867   1.262       .  A
N857        O868   1.262       .  A
N859        O865   1.262       .  A
N859        O866   1.262       .  A
C869        C870   1.402       .  A
C869        C874   1.402       .  A
C869        H879   1.079   1_556  S
C870        C875   1.478       .  S
C870        C871   1.408       .  A
C871        C872   1.397       .  A
C871        N876   1.429       .  S
C872        C873   1.401       .  A
C872        H877   1.080       .  S
C873        C874   1.413       .  A
C874        N878   1.429       .  S
C875        C880   1.405       .  A
C875        C884   1.405       .  A
N876        O891   1.262       .  A
N876        O892   1.262       .  A
N878        O889   1.262       .  A
N878        O890   1.262   1_556  A
C880        C881   1.396       .  A
C880        N885   1.429       .  S
C881        C882   1.408       .  A
C881        H886   1.080   1_556  S
C882        C883   1.409       .  A
C883        C884   1.402       .  A
C883        N887   1.428       .  S
C884        H888   1.079       .  S
N885        O895   1.262   1_556  A
N885        O896   1.262       .  A
N887        O893   1.262   1_556  A
N887        O894   1.262       .  A
C897        C898   1.402       .  A
C897        C902   1.403       .  A
C897        H907   1.078       .  S
C898        C903   1.491       .  S
C898        C899   1.412       .  A
C899        C900   1.401       .  A
C899        N904   1.430       .  S
C900        C901   1.405       .  A
C900        H905   1.079       .  S
C901        C902   1.420       .  A
C902        N906   1.429       .  S
C903        C908   1.414       .  A
C903        C912   1.403       .  A
N904        O919   1.262       .  A
N904        O920   1.262       .  A
N906        O917   1.262       .  A
N906        O918   1.262       .  A
C908        C909   1.406       .  A
C908        N913   1.429       .  S
C909        C910   1.403       .  A
C909        H914   1.079       .  S
C910        C911   1.411       .  A
C911        C912   1.398       .  A
C911        N915   1.430       .  S
C912        H916   1.078       .  S
N913        O923   1.262       .  A
N913        O924   1.262       .  A
N915        O921   1.262       .  A
N915        O922   1.262       .  A
C925        C926   1.405       .  A
C925        C930   1.409       .  A
C925        H935   1.080       .  S
C926        C931   1.495       .  S
C926        C927   1.409       .  A
C927        C928   1.404       .  A
C927        N932   1.429       .  S
C928        C929   1.410       .  A
C928        H933   1.080       .  S
C929        C930   1.416       .  A
C930       N3174   1.428       .  S
C931        C936   1.411       .  A
C931        C940   1.402       .  A
N932        O947   1.262       .  A
N932        O948   1.262       .  A
N934       C3170   1.428       .  S
N934        O945   1.262       .  A
N934        O946   1.262   1_655  A
C936        C937   1.408       .  A
C936        N941   1.428       .  S
C937        C938   1.408       .  A
C937        H942   1.080       .  S
C938        C939   1.419       .  A
C939        C940   1.405       .  A
C939        N943   1.429       .  S
C940        H944   1.080       .  S
N941        O951   1.262       .  A
N941        O952   1.262       .  A
N943        O949   1.262       .  A
N943        O950   1.262       .  A
C953        C954   1.403       .  A
C953        C958   1.406       .  A
C953        H963   1.081       .  S
C954        C959   1.487       .  S
C954        C955   1.407       .  A
C955        C956   1.403       .  A
C955        N960   1.429       .  S
C956        C957   1.410       .  A
C956        H961   1.081       .  S
C957        C958   1.417       .  A
C958        N962   1.428       .  S
C959        C964   1.409       .  A
C959        C968   1.399       .  A
N960        O976   1.262       .  A
N960       O3215   1.262       .  A
N962        O973   1.262       .  A
N962        O974   1.262       .  A
C964        C965   1.406       .  A
C964        N969   1.429       .  S
C965        C966   1.409       .  A
C965        H970   1.079       .  S
C966        C967   1.421       .  A
C967        C968   1.403       .  A
C967        N971   1.429       .  S
C968        H972   1.080       .  S
N969        O979   1.262       .  A
N969        O980   1.262       .  A
N971        O977   1.262       .  A
N971        O978   1.262       .  A
O975       N3200   1.262       .  A
C981        C982   1.407       .  A
C981        C986   1.404       .  A
C981        H991   1.079       .  S
C982        C987   1.483       .  S
C982        C983   1.405       .  A
C983        C984   1.397       .  A
C983        N988   1.429       .  S
C984        C985   1.407       .  A
C984        H989   1.079       .  S
C985        C986   1.411       .  A
C986        N990   1.429       .  S
C987        C992   1.409       .  A
C987        C996   1.405       .  A
N988       O1004   1.262       .  A
N988       O3243   1.262       .  A
N990       O1001   1.262       .  A
N990       O1002   1.262       .  A
C992        C993   1.397       .  A
C992        N997   1.430       .  S
C993        C994   1.402       .  A
C993        H998   1.080       .  S
C994        C995   1.411       .  A
C995        C996   1.403       .  A
C995        N999   1.429       .  S
C996       H1000   1.079       .  S
N997       O1007   1.262       .  A
N997       O1008   1.262       .  A
N999       O1005   1.262       .  A
N999       O1006   1.262       .  A
O1003      N3228   1.262       .  A
C1009      C1010   1.400       .  A
C1009      C1014   1.400       .  A
C1009      H1019   1.082       .  S
C1010      C1015   1.491       .  S
C1010      C1011   1.415       .  A
C1011      C1012   1.408       .  A
C1011      N1016   1.430       .  S
C1012      C1013   1.404       .  A
C1012      H1017   1.081       .  S
C1013      C1014   1.416       .  A
C1014      N1018   1.429       .  S
C1015      C1020   1.409       .  A
C1015      C1024   1.408       .  A
N1016      O1031   1.262       .  A
N1016      O1032   1.262       .  A
N1018      O1029   1.262       .  A
N1018      O1030   1.262       .  A
C1020      C1021   1.401       .  A
C1020      N1025   1.432       .  S
C1021      C1022   1.409       .  A
C1021      H3266   1.079       .  S
C1022      C1023   1.412       .  A
C1023      C1024   1.410       .  A
C1023      N1027   1.428       .  S
C1024      H1028   1.079       .  S
N1025      O1036   1.262       .  A
N1025      O3275   1.262       .  A
H1026      C3261   1.080       .  S
N1027      O1033   1.262       .  A
N1027      O1034   1.262       .  A
O1035      N3265   1.262       .  A
C1037      C1038   1.408       .  A
C1037      C1042   1.406       .  A
C1037      H1047   1.074       .  S
C1038      C1043   1.488       .  S
C1038      C1039   1.408       .  A
C1039      C1040   1.402       .  A
C1039      N1044   1.431       .  S
C1040      C1041   1.411       .  A
C1040      H1045   1.075       .  S
C1041      C1042   1.411       .  A
C1042      N1046   1.428       .  S
C1043      C1048   1.412       .  A
C1043      C1052   1.397       .  A
N1044      O1059   1.262       .  A
N1044      O1060   1.262       .  A
N1046      O1057   1.262       .  A
N1046      O1058   1.262       .  A
C1048      C1049   1.408       .  A
C1048      N1053   1.429       .  S
C1049      C1050   1.408       .  A
C1049      H1054   1.090       .  S
C1050      C1051   1.421       .  A
C1051      C1052   1.397       .  A
C1051      N1055   1.431       .  S
C1052      H1056   1.091       .  S
N1053      O1063   1.262       .  A
N1053      O1064   1.262       .  A
N1055      O1061   1.262       .  A
N1055      O1062   1.262       .  A
C1065      C1066   1.406       .  A
C1065      C1070   1.404       .  A
C1065      H1075   1.077       .  S
C1066      C1071   1.494       .  S
C1066      C1067   1.410       .  A
C1067      C1068   1.403       .  A
C1067      N1072   1.429       .  S
C1068      C1069   1.409       .  A
C1068      H1073   1.079       .  S
C1069      C1070   1.413       .  A
C1070      N1074   1.428       .  S
C1071      C1076   1.409       .  A
C1071      C1080   1.410       .  A
N1072      O1087   1.262       .  A
N1072      O1088   1.262       .  A
N1074      O1085   1.262       .  A
N1074      O1086   1.261       .  A
C1076      C1077   1.397       .  A
C1076      N1081   1.430       .  S
C1077      C1078   1.407       .  A
C1077      H1082   1.079       .  S
C1078      C1079   1.411       .  A
C1079      C1080   1.410       .  A
C1079      N1083   1.428       .  S
C1080      H1084   1.077       .  S
N1081      O1091   1.262       .  A
N1081      O1092   1.262       .  A
N1083      O1090   1.262   1_455  A
N1083      O3329   1.262   1_455  A
O1089      N3323   1.262       .  A
C1093      C1094   1.402       .  A
C1093      C1098   1.400       .  A
C1093      H1103   1.079       .  S
C1094      C1099   1.485       .  S
C1094      C1095   1.413       .  A
C1095      C1096   1.403       .  A
C1095      N1100   1.429       .  S
C1096      C1097   1.400       .  A
C1096      H1101   1.080       .  S
C1097      C1098   1.411       .  A
C1098      N1102   1.430       .  S
C1099      C1104   1.413       .  A
C1099      C1108   1.400       .  A
N1100      O1115   1.262       .  A
N1100      O1116   1.262       .  A
N1102      O1113   1.262       .  A
N1102      O1114   1.262       .  A
C1104      C1105   1.405       .  A
C1104      N1109   1.429       .  S
C1105      C1106   1.401       .  A
C1105      H1110   1.079       .  S
C1106      C1107   1.413       .  A
C1107      C1108   1.397       .  A
C1107      N1111   1.431       .  S
C1108      H1112   1.079       .  S
N1109      O1119   1.262       .  A
N1109      O1120   1.262       .  A
N1111      O1117   1.262       .  A
N1111      O1118   1.262       .  A
C1121      C1122   1.403       .  A
C1121      C1126   1.401       .  A
C1121      H1131   1.079       .  S
C1122      C1127   1.492       .  S
C1122      C1123   1.414       .  A
C1123      C1124   1.406       .  A
C1123      N1128   1.429       .  S
C1124      C1125   1.402       .  A
C1124      H1129   1.079       .  S
C1125      C1126   1.412       .  A
C1126      N1130   1.429       .  S
C1127      C1132   1.414       .  A
C1127      C1136   1.405       .  A
N1128      O1143   1.262       .  A
N1128      O1144   1.262       .  A
N1130      O1141   1.262       .  A
N1130      O1142   1.262       .  A
C1132      C1133   1.404       .  A
C1132      N1137   1.429       .  S
C1133      C1134   1.401       .  A
C1133      H1138   1.080       .  S
C1134      C1135   1.411       .  A
C1135      C1136   1.403       .  A
C1135      N1139   1.430       .  S
C1136      H1140   1.079       .  S
N1137      O1147   1.262       .  A
N1137      O1148   1.262       .  A
N1139      O1145   1.262       .  A
N1139      O1146   1.262       .  A
C1149      C1150   1.407   1_556  A
C1149      C1154   1.403   1_556  A
C1149      H1159   1.077       .  S
C1150      C1155   1.488       .  S
C1150      C1151   1.409       .  A
C1151      C1152   1.401       .  A
C1151      N1156   1.429       .  S
C1152      C1153   1.406       .  A
C1152      H1157   1.078       .  S
C1153      C1154   1.411       .  A
C1154      N1158   1.429   1_554  S
C1155      C1160   1.406       .  A
C1155      C1164   1.409       .  A
N1156      O1171   1.262       .  A
N1156      O1172   1.262       .  A
N1158      O1169   1.262       .  A
N1158      O1170   1.262       .  A
C1160      C1161   1.396   1_554  A
C1160      N1165   1.430       .  S
C1161      C1162   1.410       .  A
C1161      H1166   1.078       .  S
C1162      C1163   1.412   1_556  A
C1163      C1164   1.407       .  A
C1163      N1167   1.428       .  S
C1164      H1168   1.077       .  S
N1165      O1175   1.262   1_554  A
N1165      O1176   1.262       .  A
N1167      O1174   1.262       .  A
N1167      O3413   1.262   1_554  A
O1173      N3407   1.262   1_556  A
C1177      C1178   1.403       .  A
C1177      C1182   1.405       .  A
C1177      H1187   1.080       .  S
C1178      C1183   1.492       .  S
C1178      C1179   1.411       .  A
C1179      C1180   1.407       .  A
C1179      N1184   1.429       .  S
C1180      C1181   1.408       .  A
C1180      H1185   1.080       .  S
C1181      C1182   1.416       .  A
C1182      N1186   1.429       .  S
C1183      C1188   1.412       .  A
C1183      C1192   1.400       .  A
N1184      O1199   1.262       .  A
N1184      O1200   1.262       .  A
N1186      O1197   1.262       .  A
N1186      O1198   1.262       .  A
C1188      C1189   1.409       .  A
C1188      N1193   1.429       .  S
C1189      C1190   1.408       .  A
C1189      H1194   1.080       .  S
C1190      C1191   1.419       .  A
C1191      C1192   1.404       .  A
C1191      N1195   1.429       .  S
C1192      H1196   1.081       .  S
N1193      O1203   1.262       .  A
N1193      O1204   1.262       .  A
N1195      O1201   1.261       .  A
N1195      O1202   1.262       .  A
C1205      C1206   1.406       .  A
C1205      C1210   1.407       .  A
C1205      H1215   1.080       .  S
C1206      C1211   1.491       .  S
C1206      C1207   1.409       .  A
C1207      C1208   1.403       .  A
C1207      N1212   1.431       .  S
C1208      C1209   1.412       .  A
C1208      H1213   1.080       .  S
C1209      C1210   1.415       .  A
C1210      N1214   1.428       .  S
C1211      C1216   1.413       .  A
C1211      C1220   1.400       .  A
N1212      O1227   1.262       .  A
N1212      O1228   1.262       .  A
N1214      O1225   1.262       .  A
N1214      O1226   1.262       .  A
C1216      C1217   1.408       .  A
C1216      N1221   1.430       .  S
C1217      C1218   1.408       .  A
C1217      H1222   1.079       .  S
C1218      C1219   1.418       .  A
C1219      C1220   1.399       .  A
C1219      N3463   1.429       .  S
C1220      H1224   1.080       .  S
N1221      O1231   1.262       .  A
N1221      O1232   1.262       .  A
N1223      C3459   1.429       .  S
N1223      O1229   1.262       .  A
N1223      O1230   1.262       .  A
C1233      C1234   1.402       .  A
C1233      C1238   1.408       .  A
C1233      H1243   1.080       .  S
C1234      C1239   1.494       .  S
C1234      C1235   1.409       .  A
C1235      C1236   1.408       .  A
C1235      N1240   1.428       .  S
C1236      C1237   1.408       .  A
C1236      H1241   1.079       .  S
C1237      C1238   1.418       .  A
C1238      N1242   1.429       .  S
C1239      C1244   1.410       .  A
C1239      C1248   1.400       .  A
N1240      O1255   1.262       .  A
N1240      O1256   1.262       .  A
N1242      O1253   1.262       .  A
N1242      O1254   1.262       .  A
C1244      C1245   1.410       .  A
C1244      N1249   1.428       .  S
C1245      C1246   1.409       .  A
C1245      H1250   1.080       .  S
C1246      C1247   1.422       .  A
C1247      C1248   1.405       .  A
C1247      N1251   1.429       .  S
C1248      H1252   1.080       .  S
N1249      O1259   1.262       .  A
N1249      O1260   1.262       .  A
N1251      O1257   1.262       .  A
N1251      O1258   1.262       .  A
C1261      C1262   1.400       .  A
C1261      C1266   1.396       .  A
C1261      H1271   1.079       .  S
C1262      C1267   1.472       .  S
C1262      C1263   1.407       .  A
C1263      C1264   1.401       .  A
C1263      N1268   1.428   1_554  S
C1264      C1265   1.401       .  A
C1264      H1269   1.079   1_554  S
C1265      C1266   1.409       .  A
C1266      N1270   1.430       .  S
C1267      C1272   1.402       .  A
C1267      C1276   1.403       .  A
N1268      O1283   1.262       .  A
N1268      O1284   1.262       .  A
N1270      O1281   1.262       .  A
N1270      O1282   1.262       .  A
C1272      C1273   1.393       .  A
C1272      N1277   1.429       .  S
C1273      C1274   1.410       .  A
C1273      H1278   1.079       .  S
C1274      C1275   1.413       .  A
C1275      C1276   1.403       .  A
C1275      N1279   1.429       .  S
C1276      H1280   1.078       .  S
N1277      O1287   1.262       .  A
N1277      O1288   1.262       .  A
N1279      O1285   1.262       .  A
N1279      O1286   1.262   1_554  A
C1289      C1290   1.399       .  A
C1289      C1294   1.397       .  A
C1289      H1299   1.081       .  S
C1290      C1295   1.490       .  S
C1290      C1291   1.415       .  A
C1291      C1292   1.408       .  A
C1291      N1296   1.431       .  S
C1292      C1293   1.405       .  A
C1292      H1297   1.080       .  S
C1293      C1294   1.415       .  A
C1294      N1298   1.429       .  S
C1295      C1300   1.411       .  A
C1295      C1304   1.406       .  A
N1296      O1311   1.262       .  A
N1296      O1312   1.262       .  A
N1298      O1309   1.262       .  A
N1298      O1310   1.262       .  A
C1300      C1301   1.402       .  A
C1300      N1305   1.432       .  S
C1301      C1302   1.408       .  A
C1301      H1306   1.081       .  S
C1302      C1303   1.413       .  A
C1303      C1304   1.405       .  A
C1303      N1307   1.428       .  S
C1304      H1308   1.081       .  S
N1305      O1316   1.262       .  A
N1305      O3555   1.262       .  A
N1307      O1313   1.262       .  A
N1307      O1314   1.262       .  A
O1315      N3545   1.262       .  A
C1317      C1318   1.406       .  A
C1317      C1322   1.407       .  A
C1317      H1327   1.080       .  S
C1318      C1323   1.486       .  S
C1318      C1319   1.407       .  A
C1319      C1320   1.399       .  A
C1319      N1324   1.429       .  S
C1320      C1321   1.408       .  A
C1320      H1325   1.080       .  S
C1321      C1322   1.413       .  A
C1322      N1326   1.428       .  S
C1323      C1328   1.412       .  A
C1323      C1332   1.399       .  A
N1324      O1339   1.262       .  A
N1324      O1340   1.262       .  A
N1326      O1337   1.262       .  A
N1326      O1338   1.262       .  A
C1328      C1329   1.408       .  A
C1328      N1333   1.430       .  S
C1329      C1330   1.407       .  A
C1329      H1334   1.080       .  S
C1330      C1331   1.416       .  A
C1331      C1332   1.397       .  A
C1331      N1335   1.429       .  S
C1332      H1336   1.081       .  S
N1333      O1343   1.262       .  A
N1333      O1344   1.262       .  A
N1335      O1341   1.262       .  A
N1335      O1342   1.262       .  A
C1345      C1346   1.405       .  A
C1345      C1350   1.405   1_565  A
C1345      H1355   1.081       .  S
C1346      C1351   1.490       .  S
C1346      C1347   1.409   1_565  A
C1347      C1348   1.403       .  A
C1347      N1352   1.431       .  S
C1348      C1349   1.410       .  A
C1348      H1353   1.080       .  S
C1349      C1350   1.414       .  A
C1350      N1354   1.428       .  S
C1351      C1356   1.414       .  A
C1351      C1360   1.402       .  A
N1352      O1367   1.262       .  A
N1352      O1368   1.262       .  A
N1354      O1365   1.262   1_545  A
N1354      O1366   1.262   1_545  A
C1356      C1357   1.407       .  A
C1356      N1361   1.430       .  S
C1357      C1358   1.404       .  A
C1357      H1362   1.080       .  S
C1358      C1359   1.412       .  A
C1359      C1360   1.400       .  A
C1359      N1363   1.429       .  S
C1360      H1364   1.081       .  S
N1361      O1371   1.262       .  A
N1361      O1372   1.262       .  A
N1363      O1370   1.262       .  A
N1363      O3609   1.262       .  A
O1369      N3603   1.262       .  A
C1373      C1374   1.397       .  A
C1373      C1378   1.396       .  A
C1373      H1383   1.080       .  S
C1374      C1379   1.474       .  S
C1374      C1375   1.406       .  A
C1375      C1376   1.402       .  A
C1375      N1380   1.428       .  S
C1376      C1377   1.407       .  A
C1376      H1381   1.080       .  S
C1377      C1378   1.419       .  A
C1378      N1382   1.429       .  S
C1379      C1384   1.406       .  A
C1379      C1388   1.401       .  A
N1380      O1395   1.262       .  A
N1380      O1396   1.262       .  A
N1382      O1393   1.262       .  A
N1382      O1394   1.262       .  A
C1384      C1385   1.397       .  A
C1384      N1389   1.429       .  S
C1385      C1386   1.403       .  A
C1385      H1390   1.080       .  S
C1386      C1387   1.412       .  A
C1387      C1388   1.402       .  A
C1387      N1391   1.429       .  S
C1388      H1392   1.080       .  S
N1389      O1399   1.262       .  A
N1389      O1400   1.262       .  A
N1391      O1397   1.262       .  A
N1391      O1398   1.262       .  A
C1401      C1402   1.401       .  A
C1401      C1406   1.403       .  A
C1401      H1411   1.080       .  S
C1402      C1407   1.484       .  S
C1402      C1403   1.409       .  A
C1403      C1404   1.405       .  A
C1403      N1408   1.428       .  S
C1404      C1405   1.406       .  A
C1404      H1409   1.080       .  S
C1405      C1406   1.415       .  A
C1406      N1410   1.429       .  S
C1407      C1412   1.405       .  A
C1407      C1416   1.405       .  A
N1408      O1423   1.262       .  A
N1408      O1424   1.262       .  A
N1410      O1421   1.262       .  A
N1410      O1422   1.262       .  A
C1412      C1413   1.399       .  A
C1412      N1417   1.429       .  S
C1413      C1414   1.411       .  A
C1413      H1418   1.080       .  S
C1414      C1415   1.415       .  A
C1415      C1416   1.408       .  A
C1415      N1419   1.428       .  S
C1416      H1420   1.080       .  S
N1417      O1427   1.262       .  A
N1417      O1428   1.262       .  A
N1419      O1425   1.262       .  A
N1419      O1426   1.262       .  A
C1429      C1430   1.401       .  A
C1429      C1434   1.405       .  A
C1429      H1439   1.080       .  S
C1430      C1435   1.489       .  S
C1430      C1431   1.410       .  A
C1431      C1432   1.407       .  A
C1431      N1436   1.428       .  S
C1432      C1433   1.406       .  A
C1432      H1437   1.080       .  S
C1433      C1434   1.416       .  A
C1434      N1438   1.429       .  S
C1435      C1440   1.407       .  A
C1435      C1444   1.401       .  A
N1436      O1451   1.262       .  A
N1436      O1452   1.262       .  A
N1438      O1449   1.262       .  A
N1438      O1450   1.262       .  A
C1440      C1441   1.405       .  A
C1440      N1445   1.428       .  S
C1441      C1442   1.409       .  A
C1441      H1446   1.080       .  S
C1442      C1443   1.421       .  A
C1443      C1444   1.406       .  A
C1443      N1447   1.429       .  S
C1444      H1448   1.081       .  S
N1445      O1455   1.262       .  A
N1445      O1456   1.261       .  A
N1447      O1453   1.262       .  A
N1447      O1454   1.262       .  A
C1457      C1458   1.396       .  A
C1457      C1462   1.401       .  A
C1457      H1467   1.080       .  S
C1458      C1463   1.485       .  S
C1458      C1459   1.409       .  A
C1459      C1460   1.408       .  A
C1459      N1464   1.428       .  S
C1460      C1461   1.408       .  A
C1460      H1465   1.079       .  S
C1461      C1462   1.423       .  A
C1462      N1466   1.429       .  S
C1463      C1468   1.406       .  A
C1463      C1472   1.403       .  A
N1464      O1479   1.262       .  A
N1464      O1480   1.262       .  A
N1466      O1477   1.262       .  A
N1466      O1478   1.262       .  A
C1468      C1469   1.402       .  A
C1468      N1473   1.429       .  S
C1469      C1470   1.409       .  A
C1469      H1474   1.081       .  S
C1470      C1471   1.414       .  A
C1471      C1472   1.407       .  A
C1471      N1475   1.428       .  S
C1472      H1476   1.080       .  S
N1473      O1483   1.262       .  A
N1473      O1484   1.262       .  A
N1475      O1481   1.262       .  A
N1475      O1482   1.262       .  A
C1485      C1486   1.411       .  A
C1485      C1490   1.407       .  A
C1485      H1495   1.077       .  S
C1486      C1491   1.490       .  S
C1486      C1487   1.409       .  A
C1487      C1488   1.393       .  A
C1487      N1492   1.430       .  S
C1488      C1489   1.405       .  A
C1488      H1493   1.080       .  S
C1489      C2604   1.478       .  S
C1489      C1490   1.407       .  A
C1490      N3734   1.428   1_455  S
C1491      C1496   1.409       .  A
C1491      C1500   1.407       .  A
N1492      O1507   1.262       .  A
N1492      O1508   1.262       .  A
N1494      C3730   1.429       .  S
N1494      O1505   1.262       .  A
N1494      O1506   1.262       .  A
C1496      C1497   1.401       .  A
C1496      N1501   1.430       .  S
C1497      C1498   1.409       .  A
C1497      H1502   1.078       .  S
C1498      C1499   1.412       .  A
C1499      C1500   1.401       .  A
C1499      N1503   1.428       .  S
C1500      H1504   1.075       .  S
N1501      O1511   1.262       .  A
N1501      O1512   1.262       .  A
N1503      O1509   1.262       .  A
N1503      O1510   1.262       .  A
C1513      C1514   1.401       .  A
C1513      C1518   1.402       .  A
C1513      H1523   1.080       .  S
C1514      C1519   1.490       .  S
C1514      C1515   1.411       .  A
C1515      C1516   1.408       .  A
C1515      N1520   1.429       .  S
C1516      C1517   1.408       .  A
C1516      H1521   1.079       .  S
C1517      C1518   1.418       .  A
C1518      N1522   1.429       .  S
C1519      C1524   1.411       .  A
C1519      C1528   1.401       .  A
N1520      O1535   1.262       .  A
N1520      O1536   1.262       .  A
N1522      O1533   1.262       .  A
N1522      O1534   1.262       .  A
C1524      C1525   1.408       .  A
C1524      N1529   1.429       .  S
C1525      C1526   1.407       .  A
C1525      H1530   1.080       .  S
C1526      C1527   1.416       .  A
C1527      C1528   1.402       .  A
C1527      N1531   1.429       .  S
C1528      H1532   1.081       .  S
N1529      O1539   1.262       .  A
N1529      O1540   1.262       .  A
N1531      O1537   1.262       .  A
N1531      O1538   1.262       .  A
C1541      C1542   1.404       .  A
C1541      C1546   1.406       .  A
C1541      H1551   1.079       .  S
C1542      C1547   1.476       .  S
C1542      C1543   1.402       .  A
C1543      C1544   1.394       .  A
C1543      N1548   1.430       .  S
C1544      C1545   1.412       .  A
C1544      H1549   1.079       .  S
C1545      C1546   1.414       .  A
C1546      N1550   1.428       .  S
C1547      C1552   1.408       .  A
C1547      C1556   1.402       .  A
N1548      O1563   1.262       .  A
N1548      O1564   1.262       .  A
N1550      O1561   1.262       .  A
N1550      O1562   1.262       .  A
C1552      C1553   1.402       .  A
C1552      N1557   1.428       .  S
C1553      C1554   1.402       .  A
C1553      H1558   1.080       .  S
C1554      C1555   1.408       .  A
C1555      C1556   1.397       .  A
C1555      N1559   1.430       .  S
C1556      H1560   1.079       .  S
N1557      O1567   1.262       .  A
N1557      O1568   1.262       .  A
N1559      O1565   1.262       .  A
N1559      O1566   1.262       .  A
C1569      C1570   1.407       .  A
C1569      C1574   1.409       .  A
C1569      H1579   1.078       .  S
C1570      C1575   1.493       .  S
C1570      C1571   1.410       .  A
C1571      C1572   1.399       .  A
C1571      N1576   1.429       .  S
C1572      C1573   1.406       .  A
C1572      H1577   1.079       .  S
C1573      C1574   1.413       .  A
C1574      N1578   1.429       .  S
C1575      C1580   1.408       .  A
C1575      C1584   1.408       .  A
N1576      O1591   1.262       .  A
N1576      O1592   1.262       .  A
N1578      O1589   1.262       .  A
N1578      O1590   1.262       .  A
C1580      C1581   1.403       .  A
C1580      N1585   1.429       .  S
C1581      C1582   1.409       .  A
C1581      H1586   1.080       .  S
C1582      C1583   1.411       .  A
C1583      C1584   1.406       .  A
C1583      N1587   1.428       .  S
C1584      H1588   1.079       .  S
N1585      O1595   1.262       .  A
N1585      O1596   1.262       .  A
N1587      O1593   1.262       .  A
N1587      O1594   1.262       .  A
C1597      C1598   1.399       .  A
C1597      C1602   1.402       .  A
C1597      H1607   1.080       .  S
C1598      C1603   1.485       .  S
C1598      C1599   1.411       .  A
C1599      C1600   1.405       .  A
C1599      N1604   1.429       .  S
C1600      C1601   1.405       .  A
C1600      H1605   1.079       .  S
C1601      C1602   1.416       .  A
C1602      N1606   1.429       .  S
C1603      C1608   1.408       .  A
C1603      C1612   1.404       .  A
N1604      O1619   1.262   1_556  A
N1604      O1620   1.262       .  A
N1606      O1617   1.262       .  A
N1606      O1618   1.262       .  A
C1608      C1609   1.399       .  A
C1608      N1613   1.430       .  S
C1609      C1610   1.406       .  A
C1609      H1614   1.081       .  S
C1610      C1611   1.413       .  A
C1611      C1612   1.406       .  A
C1611      N1615   1.429   1_556  S
C1612      H1616   1.081   1_556  S
N1613      O1623   1.262       .  A
N1613      O1624   1.262       .  A
N1615      O1621   1.262       .  A
N1615      O1622   1.262       .  A
C1625      C1626   1.407       .  A
C1625      C1630   1.408       .  A
C1625      H1635   1.077       .  S
C1626      C1631   1.489       .  S
C1626      C3867   1.407       .  A
C1627      C1628   1.395       .  A
C1627      C3866   1.407       .  A
C1627      N1632   1.429       .  S
C1628      C3869   1.408       .  A
C1628      H1633   1.079       .  S
C1629      C2615   1.492       .  S
C1629      C1630   1.415       .  A
C1629      C3868   1.409       .  A
C1630      N1634   1.429       .  S
C1631      C1636   1.407       .  A
C1631      C1640   1.406       .  A
N1632      O1647   1.262       .  A
N1632      O1648   1.262       .  A
N1634      O1645   1.262       .  A
N1634      O1646   1.262       .  A
C1636      C1637   1.399       .  A
C1636      N1641   1.429       .  S
C1637      C1638   1.410       .  A
C1637      H1642   1.078       .  S
C1638      C1639   1.414       .  A
C1639      C1640   1.405       .  A
C1639      N1643   1.428       .  S
C1640      H1644   1.077       .  S
N1641      O1651   1.262       .  A
N1641      O1652   1.262       .  A
N1643      O1649   1.262   1_455  A
N1643      O3890   1.262       .  A
O1650      N3883   1.262       .  A
C1653      C1654   1.403   1_656  A
C1653      C1658   1.403   1_655  A
C1653      H3903   1.081       .  S
C1654      C3899   1.487   1_455  S
C1654      C1655   1.412       .  A
C1655      C1656   1.403       .  A
C1655      N1660   1.431       .  S
C1656      C1657   1.405       .  A
C1656      H1661   1.080       .  S
C1657      C1658   1.413   1_554  A
C1658      N1662   1.429       .  S
C1659      C3894   1.487       .  S
C1659      C1664   1.408       .  A
C1659      C1668   1.405       .  A
N1660      O1675   1.262       .  A
N1660      O1676   1.262       .  A
N1662      O1673   1.262       .  A
N1662      O1674   1.262   1_455  A
H1663      C3893   1.080       .  S
C1664      C1665   1.401       .  A
C1664      N1669   1.431       .  S
C1665      C1666   1.410       .  A
C1665      H1670   1.080       .  S
C1666      C1667   1.412       .  A
C1667      C1668   1.404       .  A
C1667      N1671   1.428       .  S
C1668      H1672   1.080       .  S
N1669      O1679   1.262   1_554  A
N1669      O3920   1.262       .  A
N1671      O1677   1.262       .  A
N1671      O1678   1.262       .  A
O1680      N3909   1.262       .  A
C1681      C1682   1.402       .  A
C1681      C1686   1.398       .  A
C1681      H1691   1.079       .  S
C1682      C1687   1.478       .  S
C1682      C1683   1.411       .  A
C1683      C1684   1.400       .  A
C1683      N1688   1.429   1_554  S
C1684      C1685   1.400       .  A
C1684      H1689   1.080   1_554  S
C1685      C1686   1.409       .  A
C1686      N1690   1.429       .  S
C1687      C1692   1.410       .  A
C1687      C1696   1.403   1_554  A
N1688      O1703   1.262       .  A
N1688      O1704   1.262       .  A
N1690      O1701   1.262       .  A
N1690      O1702   1.262       .  A
C1692      C1693   1.401       .  A
C1692      N1697   1.429       .  S
C1693      C1694   1.402   1_554  A
C1693      H1698   1.081       .  S
C1694      C1695   1.406       .  A
C1695      C1696   1.397       .  A
C1695      N1699   1.429       .  S
C1696      H1700   1.080       .  S
N1697      O1707   1.262       .  A
N1697      O1708   1.262       .  A
N1699      O1705   1.262       .  A
N1699      O1706   1.262       .  A
C1709      C1710   1.408       .  A
C1709      C1714   1.407       .  A
C1709      H1719   1.078       .  S
C1710      C1715   1.492       .  S
C1710      C3951   1.409   1_455  A
C1711      C1712   1.399       .  A
C1711      C3950   1.406       .  A
C1711      N1716   1.429       .  S
C1712      C1713   1.409       .  A
C1712      H1717   1.079       .  S
C1713      C3954   1.417       .  A
C1714      C3953   1.413       .  A
C1714      N1718   1.429       .  S
C1715      C1720   1.408       .  A
C1715      C1724   1.407       .  A
N1716      O1731   1.262       .  A
N1716      O1732   1.262       .  A
N1718      O1729   1.262       .  A
N1718      O1730   1.262       .  A
C1720      C1721   1.400       .  A
C1720      N1725   1.430       .  S
C1721      C1722   1.410       .  A
C1721      H1726   1.078       .  S
C1722      C1723   1.414       .  A
C1723      C1724   1.407       .  A
C1723      N1727   1.428       .  S
C1724      H1728   1.077   1_455  S
N1725      O1735   1.262       .  A
N1725      O1736   1.262       .  A
N1727      O1733   1.262       .  A
N1727      O1734   1.262   1_455  A
C1737      C1738   1.400       .  A
C1737      C3982   1.400       .  A
C1737      H1747   1.079       .  S
C1738      C1743   1.486       .  S
C1738      C3979   1.411       .  A
C1739      C1740   1.403       .  A
C1739      C3978   1.414   1_455  A
C1739      N1744   1.429       .  S
C1740      C1741   1.405       .  A
C1740      H1745   1.078       .  S
C1741      C1742   1.419   1_455  A
C1742      C3977   1.403       .  A
C1742      N1746   1.429       .  S
C1743      C1748   1.410       .  A
C1743      C1752   1.402       .  A
N1744      O1759   1.262       .  A
N1744      O1760   1.262       .  A
N1746      O1758   1.262       .  A
N1746      O3997   1.262       .  A
C1748      C1749   1.403       .  A
C1748      N1753   1.429       .  S
C1749      C1750   1.406       .  A
C1749      H1754   1.079       .  S
C1750      C1751   1.415       .  A
C1751      C1752   1.401       .  A
C1751      N1755   1.429       .  S
C1752      H1756   1.079       .  S
N1753      O1763   1.262       .  A
N1753      O1764   1.262       .  A
N1755      O1761   1.262       .  A
N1755      O1762   1.262       .  A
O1757      N3986   1.262       .  A
C1765      C1766   1.408       .  A
C1765      C1770   1.410       .  A
C1765      H1775   1.079       .  S
C1766      C1771   1.494       .  S
C1766      C1767   1.409       .  A
C1767      C1768   1.402       .  A
C1767      N1772   1.429       .  S
C1768      C1769   1.406       .  A
C1768      H1773   1.080       .  S
C1769      C1770   1.412       .  A
C1770      N1774   1.429       .  S
C1771      C1776   1.409       .  A
C1771      C1780   1.403       .  A
N1772      O1787   1.262       .  A
N1772      O1788   1.262       .  A
N1774      O1785   1.262       .  A
N1774      O1786   1.262       .  A
C1776      C1777   1.406       .  A
C1776      N1781   1.428       .  S
C1777      C1778   1.409       .  A
C1777      H1782   1.079       .  S
C1778      C1779   1.420       .  A
C1779      C1780   1.406       .  A
C1779      N1783   1.429       .  S
C1780      H1784   1.079       .  S
N1781      O1791   1.262       .  A
N1781      O1792   1.262       .  A
N1783      O1789   1.262       .  A
N1783      O1790   1.262       .  A
C1793      C1794   1.406       .  A
C1793      C1798   1.409       .  A
C1793      H1803   1.079       .  S
C1794      C1799   1.480       .  S
C1794      C1795   1.400       .  A
C1795      C1796   1.394       .  A
C1795      N1800   1.429       .  S
C1796      C1797   1.413       .  A
C1796      H1801   1.079       .  S
C1797      C1798   1.415       .  A
C1798      N1802   1.428       .  S
C1799      C1804   1.404       .  A
C1799      C1808   1.404       .  A
N1800      O1815   1.262       .  A
N1800      O1816   1.262       .  A
N1802      O1813   1.262       .  A
N1802      O1814   1.262       .  A
C1804      C1805   1.398       .  A
C1804      N1809   1.429       .  S
C1805      C1806   1.409       .  A
C1805      H1810   1.080       .  S
C1806      C1807   1.413       .  A
C1807      C1808   1.405       .  A
C1807      N1811   1.428       .  S
C1808      H1812   1.080       .  S
N1809      O1819   1.262       .  A
N1809      O1820   1.262       .  A
N1811      O1817   1.262       .  A
N1811      O1818   1.262       .  A
C1821      C1822   1.404       .  A
C1821      C1826   1.402       .  A
C1821      H1831   1.081       .  S
C1822      C1827   1.479       .  S
C1822      C1823   1.407       .  A
C1823      C1824   1.398       .  A
C1823      N1828   1.430       .  S
C1824      C1825   1.405       .  A
C1824      H1829   1.081       .  S
C1825      C1826   1.409       .  A
C1826      N1830   1.429       .  S
C1827      C1832   1.412       .  A
C1827      C1836   1.396       .  A
N1828      O1843   1.262       .  A
N1828      O1844   1.262       .  A
N1830      O1841   1.262       .  A
N1830      O1842   1.262       .  A
C1832      C1833   1.406       .  A
C1832      N1837   1.430       .  S
C1833      C1834   1.404       .  A
C1833      H1838   1.079       .  S
C1834      C1835   1.417       .  A
C1835      C1836   1.395       .  A
C1835      N1839   1.430       .  S
C1836      H1840   1.080       .  S
N1837      O1847   1.262       .  A
N1837      O1848   1.262       .  A
N1839      O1845   1.262       .  A
N1839      O1846   1.262       .  A
C1849      C1850   1.403       .  A
C1849      C1854   1.402       .  A
C1849      H1859   1.079       .  S
C1850      C1855   1.491       .  S
C1850      C1851   1.411       .  A
C1851      C1852   1.406       .  A
C1851      N1856   1.428       .  S
C1852      C1853   1.406       .  A
C1852      H1857   1.079       .  S
C1853      C1854   1.416       .  A
C1854      N1858   1.429       .  S
C1855      C1860   1.409       .  A
C1855      C1864   1.406       .  A
N1856      O1871   1.262       .  A
N1856      O1872   1.262       .  A
N1858      O1869   1.262       .  A
N1858      O1870   1.262       .  A
C1860      C1861   1.400       .  A
C1860      N1865   1.429       .  S
C1861      C1862   1.408       .  A
C1861      H1866   1.080       .  S
C1862      C1863   1.414       .  A
C1863      C1864   1.408       .  A
C1863      N1867   1.428       .  S
C1864      H1868   1.079       .  S
N1865      O1875   1.262       .  A
N1865      O1876   1.262       .  A
N1867      O1873   1.262       .  A
N1867      O1874   1.262       .  A
C1877      C1878   1.404       .  A
C1877      C1882   1.406       .  A
C1877      H1887   1.079       .  S
C1878      C1883   1.476       .  S
C1878      C1879   1.401       .  A
C1879      C1880   1.393       .  A
C1879      N1884   1.429       .  S
C1880      C1881   1.410       .  A
C1880      H1885   1.080       .  S
C1881      C1882   1.415       .  A
C1882      N1886   1.429       .  S
C1883      C1888   1.404       .  A
C1883      C1892   1.404       .  A
N1884      O1899   1.262       .  A
N1884      O1900   1.262       .  A
N1886      O1897   1.262       .  A
N1886      O1898   1.262       .  A
C1888      C1889   1.396       .  A
C1888      N1893   1.429       .  S
C1889      C1890   1.408       .  A
C1889      H1894   1.079       .  S
C1890      C1891   1.410       .  A
C1891      C1892   1.403       .  A
C1891      N1895   1.429       .  S
C1892      H1896   1.079       .  S
N1893      O1903   1.262       .  A
N1893      O1904   1.262       .  A
N1895      O1901   1.262       .  A
N1895      O1902   1.262       .  A
C1905      C1906   1.408       .  A
C1905      C1910   1.410       .  A
C1905      H1915   1.079       .  S
C1906      C1911   1.490       .  S
C1906      C4147   1.406       .  A
C1907      C1908   1.398       .  A
C1907      C4146   1.406       .  A
C1907      N1912   1.428       .  S
C1908      C4149   1.406       .  A
C1908      H1913   1.080       .  S
C1909      C2517   1.489       .  S
C1909      C1910   1.412       .  A
C1909      C4148   1.407       .  A
C1910      N1914   1.429       .  S
C1911      C1916   1.409       .  A
C1911      C1920   1.405       .  A
N1912      O1927   1.262       .  A
N1912      O1928   1.262       .  A
N1914      O1925   1.262       .  A
N1914      O1926   1.262       .  A
C1916      C1917   1.402       .  A
C1916      N1921   1.429       .  S
C1917      C1918   1.407       .  A
C1917      H1922   1.080       .  S
C1918      C1919   1.415       .  A
C1919      C1920   1.407       .  A
C1919      N1923   1.429       .  S
C1920      H1924   1.079       .  S
N1921      O1931   1.262       .  A
N1921      O1932   1.262       .  A
N1923      O1929   1.262       .  A
N1923      O1930   1.262       .  A
C1933      C1934   1.407       .  A
C1933      C1938   1.408       .  A
C1933      H1943   1.080       .  S
C1934      C4179   1.489       .  S
C1934      C1935   1.409       .  A
C1935      C1936   1.401       .  A
C1935      N4180   1.430       .  S
C1936      C1937   1.407       .  A
C1936      H1941   1.081       .  S
C1937      C1938   1.409       .  A
C1938      N1942   1.427       .  S
C1939      C4174   1.486       .  S
C1939      C1944   1.412   1_655  A
C1939      C1948   1.401       .  A
N1940      C4175   1.431   1_455  S
N1940      O1955   1.262       .  A
N1940      O1956   1.262       .  A
N1942      O1953   1.262       .  A
N1942      O1954   1.261       .  A
C1944      C1945   1.404       .  A
C1944      N1949   1.431       .  S
C1945      C1946   1.407       .  A
C1945      H1950   1.081       .  S
C1946      C1947   1.415       .  A
C1947      C1948   1.401   1_455  A
C1947      N1951   1.428       .  S
C1948      H1952   1.081       .  S
N1949      O1959   1.262       .  A
N1949      O4200   1.262       .  A
N1951      O1957   1.262   1_455  A
N1951      O1958   1.262       .  A
O1960      N4189   1.262       .  A
C1961      C1962   1.405       .  A
C1961      C1966   1.406       .  A
C1961      H1971   1.080       .  S
C1962      C1967   1.480       .  S
C1962      C1963   1.403       .  A
C1963      C1964   1.395       .  A
C1963      N1968   1.429       .  S
C1964      C1965   1.410       .  A
C1964      H1969   1.080       .  S
C1965      C1966   1.415       .  A
C1966      N1970   1.429       .  S
C1967      C1972   1.403       .  A
C1967      C1976   1.404       .  A
N1968      O1983   1.262       .  A
N1968      O1984   1.262       .  A
N1970      O1981   1.262       .  A
N1970      O1982   1.262       .  A
C1972      C1973   1.395       .  A
C1972      N1977   1.429       .  S
C1973      C1974   1.410   1_554  A
C1973      H1978   1.080       .  S
C1974      C1975   1.415   1_556  A
C1975      C1976   1.405       .  A
C1975      N1979   1.429   1_554  S
C1976      H1980   1.080       .  S
N1977      O1987   1.262       .  A
N1977      O1988   1.262       .  A
N1979      O1985   1.262       .  A
N1979      O1986   1.262       .  A
C1989      C1990   1.401       .  A
C1989      C1994   1.398       .  A
C1989      H1999   1.080       .  S
C1990      C1995   1.476   1_565  S
C1990      C1991   1.411       .  A
C1991      C1992   1.400       .  A
C1991      N1996   1.430       .  S
C1992      C1993   1.400       .  A
C1992      H1997   1.080       .  S
C1993      C1994   1.408       .  A
C1994      N1998   1.429       .  S
C1995      C2000   1.409   1_545  A
C1995      C2004   1.398       .  A
N1996      O2011   1.262   1_565  A
N1996      O2012   1.262       .  A
N1998      O2009   1.262       .  A
N1998      O2010   1.262       .  A
C2000      C2001   1.399   1_565  A
C2000      N2005   1.431       .  S
C2001      C2002   1.406       .  A
C2001      H2006   1.080       .  S
C2002      C2003   1.418       .  A
C2003      C2004   1.398       .  A
C2003      N2007   1.429       .  S
C2004      H2008   1.081       .  S
N2005      O2015   1.262       .  A
N2005      O2016   1.262       .  A
N2007      O2013   1.262       .  A
N2007      O2014   1.262       .  A
C2017      C2018   1.399       .  A
C2017      C2022   1.397       .  A
C2017      H2027   1.079       .  S
C2018      C2023   1.475       .  S
C2018      C2019   1.409       .  A
C2019      C2020   1.397       .  A
C2019      N2024   1.429       .  S
C2020      C2021   1.403       .  A
C2020      H2025   1.079       .  S
C2021      C2022   1.418       .  A
C2022      N2026   1.430       .  S
C2023      C2028   1.409       .  A
C2023      C2032   1.401       .  A
N2024      O2039   1.262       .  A
N2024      O2040   1.262       .  A
N2026      O2037   1.262       .  A
N2026      O2038   1.262       .  A
C2028      C2029   1.400       .  A
C2028      N2033   1.429       .  S
C2029      C2030   1.404       .  A
C2029      H2034   1.080       .  S
C2030      C2031   1.409       .  A
C2031      C2032   1.395       .  A
C2031      N2035   1.429       .  S
C2032      H2036   1.079       .  S
N2033      O2043   1.262       .  A
N2033      O2044   1.262       .  A
N2035      O2041   1.262       .  A
N2035      O2042   1.262       .  A
C2045      C2046   1.408       .  A
C2045      C2050   1.410       .  A
C2045      H2055   1.078       .  S
C2046      C2051   1.493       .  S
C2046      C2047   1.407       .  A
C2047      C2048   1.398       .  A
C2047      N2052   1.429       .  S
C2048      C2049   1.410       .  A
C2048      H2053   1.079       .  S
C2049      C2050   1.415       .  A
C2050      N2054   1.428       .  S
C2051      C2056   1.407       .  A
C2051      C2060   1.408       .  A
N2052      O2067   1.262       .  A
N2052      O2068   1.262       .  A
N2054      O2065   1.262       .  A
N2054      O2066   1.262       .  A
C2056      C2057   1.401       .  A
C2056      N2061   1.429       .  S
C2057      C2058   1.410       .  A
C2057      H2062   1.080       .  S
C2058      C2059   1.414       .  A
C2059      C2060   1.408       .  A
C2059      N2063   1.428       .  S
C2060      H2064   1.079       .  S
N2061      O2071   1.262       .  A
N2061      O2072   1.262       .  A
N2063      O2069   1.262       .  A
N2063      O2070   1.262       .  A
C2073      C2074   1.402       .  A
C2073      C2078   1.398       .  A
C2073      H2083   1.081       .  S
C2074      C2079   1.486       .  S
C2074      C2075   1.414       .  A
C2075      C2076   1.404       .  A
C2075      N2080   1.431       .  S
C2076      C2077   1.403       .  A
C2076      H2081   1.081       .  S
C2077      C2078   1.413       .  A
C2078      N2082   1.430       .  S
C2079      C2084   1.408       .  A
C2079      C2088   1.406       .  A
N2080      O2095   1.262       .  A
N2080      O2096   1.262       .  A
N2082      O2093   1.262       .  A
N2082      O2094   1.262       .  A
C2084      C2085   1.400       .  A
C2084      N2089   1.431       .  S
C2085      C2086   1.410       .  A
C2085      H2090   1.081       .  S
C2086      C2087   1.411       .  A
C2087      C2088   1.403       .  A
C2087      N2091   1.428       .  S
C2088      H2092   1.081       .  S
N2089      O2099   1.262       .  A
N2089      O2100   1.262       .  A
N2091      O2097   1.262       .  A
N2091      O2098   1.262       .  A
C2101      C2102   1.405       .  A
C2101      C2106   1.408       .  A
C2101      H2111   1.078       .  S
C2102      C2107   1.493       .  S
C2102      C2103   1.409       .  A
C2103      C2104   1.403       .  A
C2103      N2108   1.429       .  S
C2104      C2105   1.409       .  A
C2104      H2109   1.079       .  S
C2105      C2106   1.416       .  A
C2106      N2110   1.428       .  S
C2107      C2112   1.412       .  A
C2107      C2116   1.404       .  A
N2108      O2123   1.262       .  A
N2108      O2124   1.262       .  A
N2110      O2121   1.262       .  A
N2110      O2122   1.262       .  A
C2112      C2113   1.408       .  A
C2112      N2117   1.429       .  S
C2113      C2114   1.405       .  A
C2113      H2118   1.079       .  S
C2114      C2115   1.413       .  A
C2115      C2116   1.403       .  A
C2115      N2119   1.429       .  S
C2116      H2120   1.079       .  S
N2117      O2127   1.262       .  A
N2117      O2128   1.262       .  A
N2119      O2125   1.262       .  A
N2119      O2126   1.262       .  A
C2129      C2130   1.401       .  A
C2129      C2134   1.402       .  A
C2129      H2139   1.079       .  S
C2130      C2135   1.488       .  S
C2130      C2131   1.409       .  A
C2131      C2132   1.406       .  A
C2131      N2136   1.429       .  S
C2132      C2133   1.409       .  A
C2132      H2137   1.079       .  S
C2133      C2134   1.420       .  A
C2134      N2138   1.429       .  S
C2135      C2140   1.409       .  A
C2135      C4384   1.401       .  A
N2136      O4391   1.262   1_455  A
N2136      O4392   1.262       .  A
N2138      O2149   1.262       .  A
N2138      O2150   1.262       .  A
C2140      C2141   1.405       .  A
C2140      N2145   1.428       .  S
C2141      C2142   1.408       .  A
C2141      H2146   1.080       .  S
C2142      C2475   1.496       .  S
C2142      C4383   1.420   1_455  A
C2143      C2144   1.404       .  A
C2143      C4382   1.418       .  A
C2143      N2147   1.429       .  S
C2144      C4375   1.402       .  A
C2144      H2148   1.080       .  S
N2145      O2155   1.262       .  A
N2145      O2156   1.262       .  A
N2147      O2153   1.262       .  A
N2147      O2154   1.262       .  A
O2151      N4376   1.262       .  A
O2152      N4376   1.262       .  A
C2157      C2162   1.401       .  A
C2157      C4398   1.405   1_455  A
C2157      H2167   1.078       .  S
C2158      C2163   1.489       .  S
C2158      C2159   1.407       .  A
C2158      C4397   1.406       .  A
C2159      C4400   1.401       .  A
C2159      N2164   1.429       .  S
C2160      C2161   1.410       .  A
C2160      C4399   1.400   1_455  A
C2160      H2165   1.079   1_455  S
C2161      C2162   1.414       .  A
C2162      N2166   1.429       .  S
C2163      C2168   1.410   1_565  A
C2163      C2172   1.408       .  A
N2164      O2179   1.262       .  A
N2164      O2180   1.262       .  A
N2166      O2177   1.262       .  A
N2166      O2178   1.262       .  A
C2168      C2169   1.396       .  A
C2168      N2173   1.430   1_545  S
C2169      C2170   1.403       .  A
C2169      H2174   1.079       .  S
C2170      C2171   1.410       .  A
C2171      C2172   1.407   1_545  A
C2171      N2175   1.429       .  S
C2172      H2176   1.077       .  S
N2173      O2183   1.262   1_565  A
N2173      O2184   1.262       .  A
N2175      O2181   1.262       .  A
N2175      O2182   1.262       .  A
C2185      C2186   1.405       .  A
C2185      C2190   1.410       .  A
C2185      H2195   1.079       .  S
C2186      C2191   1.492       .  S
C2186      C2187   1.406       .  A
C2187      C2188   1.402       .  A
C2187      N2192   1.429       .  S
C2188      C2189   1.411       .  A
C2188      H2193   1.079       .  S
C2189      C2190   1.418       .  A
C2190      N2194   1.429       .  S
C2191      C2196   1.410       .  A
C2191      C2200   1.405       .  A
N2192      O2207   1.262       .  A
N2192      O2208   1.262       .  A
N2194      O2205   1.262       .  A
N2194      O2206   1.262       .  A
C2196      C2197   1.405       .  A
C2196      N2201   1.428       .  S
C2197      C2198   1.404       .  A
C2197      H2202   1.079       .  S
C2198      C2199   1.412       .  A
C2199      C2200   1.406       .  A
C2199      N2203   1.429       .  S
C2200      H2204   1.079       .  S
N2201      O2211   1.262       .  A
N2201      O2212   1.261       .  A
N2203      O2209   1.262       .  A
N2203      O2210   1.262       .  A
C2213      C2214   1.402       .  A
C2213      C2218   1.401       .  A
C2213      H2223   1.079       .  S
C2214      C2219   1.475       .  S
C2214      C2215   1.408       .  A
C2215      C2216   1.395       .  A
C2215      N2220   1.430       .  S
C2216      C2217   1.403       .  A
C2216      H2221   1.080       .  S
C2217      C2218   1.412       .  A
C2218      N2222   1.429       .  S
C2219      C2224   1.403       .  A
C2219      C2228   1.404       .  A
N2220      O2235   1.262       .  A
N2220      O2236   1.262       .  A
N2222      O2233   1.262       .  A
N2222      O2234   1.262       .  A
C2224      C2225   1.395       .  A
C2224      N2229   1.429       .  S
C2225      C2226   1.409       .  A
C2225      H2230   1.080       .  S
C2226      C2227   1.412       .  A
C2227      C2228   1.401       .  A
C2227      N2231   1.428       .  S
C2228      H2232   1.079       .  S
N2229      O2239   1.262       .  A
N2229      O2240   1.262       .  A
N2231      O2237   1.262       .  A
N2231      O2238   1.262       .  A
O2241     Ni2249   1.938       .  S
O2241      C2251   1.287       .  A
O2242     Ni2249   1.938       .  S
O2242      C2252   1.285       .  A
O2243     Ni2249   1.896       .  S
O2243      C2253   1.277       .  A
O2244     Ni2249   1.906       .  S
O2244      C2254   1.279       .  A
O2245     Ni2250   1.928       .  S
O2245      C2254   1.284       .  A
O2246     Ni2250   1.925       .  S
O2246      C2253   1.283       .  A
O2247     Ni2250   1.916       .  S
O2247      C2252   1.282       .  A
O2248     Ni2250   1.910       .  S
O2248      C2251   1.279       .  A
Ni2249    Ni2250   2.382       .  S
C2251      C4373   1.496       .  S
C2252      C4429   1.501       .  S
C2253      C4457   1.473       .  S
C2254      C4401   1.491       .  S
O2255     Ni2263   1.939       .  S
O2255      C2265   1.286       .  A
O2256     Ni2263   1.938       .  S
O2256      C2266   1.286       .  A
O2257     Ni2263   1.892       .  S
O2257      C2267   1.277       .  A
O2258     Ni2263   1.899       .  S
O2258      C2268   1.276       .  A
O2259     Ni2264   1.929       .  S
O2259      C2268   1.285       .  A
O2260     Ni2264   1.931       .  S
O2260      C2267   1.284       .  A
O2261     Ni2264   1.910       .  S
O2261      C2266   1.279       .  A
O2262     Ni2264   1.906       .  S
O2262      C2265   1.279       .  A
Ni2263    Ni2264   2.384       .  S
C2265      C4298   1.491       .  S
C2266      C4354   1.487       .  S
C2267      C4466   1.482       .  S
C2268      C4317   1.478       .  S
O2269     Ni2277   1.933       .  S
O2269      C2279   1.284       .  A
O2270     Ni2277   1.933       .  S
O2270      C2280   1.285       .  A
O2271     Ni2277   1.899       .  S
O2271      C2281   1.276       .  A
O2272     Ni2277   1.904       .  S
O2272      C2282   1.277       .  A
O2273     Ni2278   1.924       .  S
O2273      C2282   1.282       .  A
O2274     Ni2278   1.924       .  S
O2274      C2281   1.284       .  A
O2275     Ni2278   1.916       .  S
O2275      C2280   1.279       .  A
O2276     Ni2278   1.904       .  S
O2276      C2279   1.280       .  A
Ni2277    Ni2278   2.386       .  S
C2279      C4205   1.491       .  S
C2280      C4438   1.483       .  S
C2281      C4261   1.481       .  S
C2282      C4233   1.464       .  S
O2283     Ni2291   1.937       .  S
O2283      C2293   1.286       .  A
O2284     Ni2291   1.934       .  S
O2284      C2294   1.285       .  A
O2285     Ni2291   1.905       .  S
O2285      C2295   1.278       .  A
O2286     Ni2291   1.923       .  S
O2286      C2296   1.282       .  A
O2287     Ni2292   1.927       .  S
O2287      C2296   1.284       .  A
O2288     Ni2292   1.921       .  S
O2288      C2295   1.282       .  A
O2289     Ni2292   1.912       .  S
O2289      C2294   1.281       .  A
O2290     Ni2292   1.908       .  S
O2290      C2293   1.279       .  A
Ni2291    Ni2292   2.385       .  S
C2293      C4158   1.485       .  S
C2294      C4345   1.496       .  S
C2295      C4270   1.475       .  S
C2296      C4186   1.492       .  S
O2297     Ni2305   1.933       .  S
O2297      C2307   1.285       .  A
O2298     Ni2305   1.929       .  S
O2298      C2308   1.284       .  A
O2299     Ni2305   1.894       .  S
O2299      C2309   1.276       .  A
O2300     Ni2305   1.901       .  S
O2300      C2310   1.278       .  A
O2301     Ni2306   1.925       .  S
O2301      C2310   1.283       .  A
O2302     Ni2306   1.928       .  S
O2302      C2309   1.283       .  A
O2303     Ni2306   1.919       .  S
O2303      C2308   1.281       .  A
O2304     Ni2306   1.904       .  S
O2304      C2307   1.279       .  A
Ni2305    Ni2306   2.389       .  S
C2307      C4046   1.483       .  S
C2308      C4093   1.486       .  S
C2309      C4130   1.465       .  S
C2310      C4065   1.472       .  S
O2311     Ni2319   1.944       .  S
O2311      C2321   1.287       .  A
O2312     Ni2319   1.948       .  S
O2312      C2322   1.287       .  A
O2313     Ni2319   1.893       .  S
O2313      C2323   1.277       .  A
O2314     Ni2319   1.905       .  S
O2314      C2324   1.278       .  A
O2315     Ni2320   1.932       .  S
O2315      C2324   1.286       .  A
O2316     Ni2320   1.934       .  S
O2316      C2323   1.284       .  A
O2317     Ni2320   1.910       .  S
O2317      C2322   1.279       .  A
O2318     Ni2320   1.908       .  S
O2318      C2321   1.280       .  A
Ni2319    Ni2320   2.382       .  S
C2321      C3962   1.500       .  S
C2322      C4009   1.488       .  S
C2323      C4121   1.483       .  S
C2324      C3981   1.487       .  S
O2325     Ni2333   1.939       .  S
O2325      C2335   1.286       .  A
O2326     Ni2333   1.941   1_556  S
O2326      C2336   1.287       .  A
O2327     Ni2333   1.905       .  S
O2327      C2337   1.278       .  A
O2328     Ni2333   1.914       .  S
O2328      C2338   1.280       .  A
O2329     Ni2334   1.929       .  S
O2329      C2338   1.284       .  A
O2330     Ni2334   1.926       .  S
O2330      C2337   1.282       .  A
O2331     Ni2334   1.906   1_556  S
O2331      C2336   1.280       .  A
O2332     Ni2334   1.905       .  S
O2332      C2335   1.280       .  A
Ni2333    Ni2334   2.384       .  S
C2335      C3878   1.495       .  S
C2336      C4102   1.496       .  S
C2337      C3925   1.467       .  S
C2338      C3897   1.485       .  S
O2339     Ni2347   1.937   1_554  S
O2339      C2349   1.285       .  A
O2340     Ni2347   1.935       .  S
O2340      C2350   1.287       .  A
O2341     Ni2347   1.895       .  S
O2341      C2351   1.275       .  A
O2342     Ni2347   1.903       .  S
O2342      C2352   1.278       .  A
O2343     Ni2348   1.938       .  S
O2343      C2352   1.286       .  A
O2344     Ni2348   1.932   1_554  S
O2344      C2351   1.284   1_554  A
O2345     Ni2348   1.923       .  S
O2345      C2350   1.281       .  A
O2346     Ni2348   1.904   1_554  S
O2346      C2349   1.280       .  A
Ni2347    Ni2348   2.385       .  S
C2349      C3813   1.488       .  S
C2350      C4018   1.503       .  S
C2351      C3934   1.463   1_556  S
C2352      C3850   1.486       .  S
O2353     Ni2361   1.938       .  S
O2353      C2363   1.286       .  A
O2354     Ni2361   1.932       .  S
O2354      C2364   1.286       .  A
O2355     Ni2361   1.909       .  S
O2355      C2365   1.279       .  A
O2356     Ni2361   1.896       .  S
O2356      C2366   1.276       .  A
O2357     Ni2362   1.925       .  S
O2357      C2366   1.283       .  A
O2358     Ni2362   1.928       .  S
O2358      C2365   1.284       .  A
O2359     Ni2362   1.915       .  S
O2359      C2364   1.280       .  A
O2360     Ni2362   1.905       .  S
O2360      C2363   1.279       .  A
Ni2361    Ni2362   2.387       .  S
C2363      C3710   1.487       .  S
C2364      C3757   1.491       .  S
C2365      C3738   1.485       .  S
C2366      C3794   1.466       .  S
O2367     Ni2375   1.939       .  S
O2367      C2377   1.286       .  A
O2368     Ni2375   1.937       .  S
O2368      C2378   1.286       .  A
O2369     Ni2375   1.896       .  S
O2369      C2379   1.276       .  A
O2370     Ni2375   1.893       .  S
O2370      C2380   1.277       .  A
O2371     Ni2376   1.935       .  S
O2371      C2380   1.285       .  A
O2372     Ni2376   1.934       .  S
O2372      C2379   1.284       .  A
O2373     Ni2376   1.917       .  S
O2373      C2378   1.280       .  A
O2374     Ni2376   1.907       .  S
O2374      C2377   1.280       .  A
Ni2375    Ni2376   2.384       .  S
C2377      C3654   1.492       .  S
C2378      C3673   1.490       .  S
C2379      C4410   1.472       .  S
C2380      C3785   1.484       .  S
O2381     Ni2389   1.937       .  S
O2381      C2391   1.285       .  A
O2382     Ni2389   1.934       .  S
O2382      C2392   1.286       .  A
O2383     Ni2389   1.910       .  S
O2383      C2393   1.280       .  A
O2384     Ni2389   1.899       .  S
O2384      C2394   1.277       .  A
O2385     Ni2390   1.932       .  S
O2385      C2394   1.284       .  A
O2386     Ni2390   1.938       .  S
O2386      C2393   1.286       .  A
O2387     Ni2390   1.916       .  S
O2387      C2392   1.280       .  A
O2388     Ni2390   1.907       .  S
O2388      C2391   1.280       .  A
Ni2389    Ni2390   2.382       .  S
C2391      C3561   1.495       .  S
C2392      C3682   1.500       .  S
C2393      C3589   1.497       .  S
C2394      C3626   1.474       .  S
O2395     Ni2403   1.942       .  S
O2395      C2405   1.287       .  A
O2396     Ni2403   1.938       .  S
O2396      C2406   1.287       .  A
O2397     Ni2403   1.907       .  S
O2397      C2407   1.278       .  A
O2398     Ni2403   1.901       .  S
O2398      C2408   1.277       .  A
O2399     Ni2404   1.932       .  S
O2399      C2408   1.286       .  A
O2400     Ni2404   1.936       .  S
O2400      C2407   1.285       .  A
O2401     Ni2404   1.907       .  S
O2401      C2406   1.278       .  A
O2402     Ni2404   1.897       .  S
O2402      C2405   1.276       .  A
Ni2403    Ni2404   2.383       .  S
C2405      C3533   1.487       .  S
C2406      C3766   1.491       .  S
C2407      C3990   1.480       .  S
C2408      C3617   1.488       .  S
O2409     Ni2417   1.944       .  S
O2409      C2419   1.287   1_554  A
O2410     Ni2417   1.940       .  S
O2410      C2420   1.287       .  A
O2411     Ni2417   1.904       .  S
O2411      C2421   1.279       .  A
O2412     Ni2417   1.899       .  S
O2412      C2422   1.276       .  A
O2413     Ni2418   1.934       .  S
O2413      C2422   1.284       .  A
O2414     Ni2418   1.936       .  S
O2414      C2421   1.285       .  A
O2415     Ni2418   1.923       .  S
O2415      C2420   1.281       .  A
O2416     Ni2418   1.915   1_556  S
O2416      C2419   1.281       .  A
Ni2417    Ni2418   2.385       .  S
C2419      C3449   1.498       .  S
C2420      C3477   1.498       .  S
C2421      C3906   1.488       .  S
C2422      C3505   1.471       .  S
O2423     Ni2431   1.934       .  S
O2423      C2433   1.285   1_554  A
O2424     Ni2431   1.934       .  S
O2424      C2434   1.286       .  A
O2425     Ni2431   1.901       .  S
O2425      C2435   1.277       .  A
O2426     Ni2431   1.896       .  S
O2426      C2436   1.277       .  A
O2427     Ni2432   1.935       .  S
O2427      C2436   1.286       .  A
O2428     Ni2432   1.939       .  S
O2428      C2435   1.286       .  A
O2429     Ni2432   1.915       .  S
O2429      C2434   1.280       .  A
O2430     Ni2432   1.903   1_556  S
O2430      C2433   1.277       .  A
Ni2431    Ni2432   2.383       .  S
C2433      C3374   1.482       .  S
C2434      C3421   1.494       .  S
C2435      C3393   1.483       .  S
C2436      C3514   1.488       .  S
O2437     Ni2445   1.944       .  S
O2437      C2447   1.288       .  A
O2438     Ni2445   1.946       .  S
O2438      C2448   1.287       .  A
O2439     Ni2445   1.898       .  S
O2439      C2449   1.278       .  A
O2440     Ni2445   1.896       .  S
O2440      C2450   1.276       .  A
O2441     Ni2446   1.932       .  S
O2441      C2450   1.286       .  A
O2442     Ni2446   1.938       .  S
O2442      C2449   1.285       .  A
O2443     Ni2446   1.913       .  S
O2443      C2448   1.279       .  A
O2444     Ni2446   1.905       .  S
O2444      C2447   1.277       .  A
Ni2445    Ni2446   2.383       .  S
C2447      C3290   1.494       .  S
C2448      C3486   1.492       .  S
C2449      C3309   1.485       .  S
C2450      C3337   1.480       .  S
O2451     Ni2459   1.941       .  S
O2451      C2461   1.286       .  A
O2452     Ni2459   1.939       .  S
O2452      C2462   1.287       .  A
O2453     Ni2459   1.898       .  S
O2453      C2463   1.277       .  A
O2454     Ni2459   1.888       .  S
O2454      C2464   1.274       .  A
O2455     Ni2460   1.939       .  S
O2455      C2464   1.286       .  A
O2456     Ni2460   1.940       .  S
O2456      C2463   1.286       .  A
O2457     Ni2460   1.915       .  S
O2457      C2462   1.280       .  A
O2458     Ni2460   1.912       .  S
O2458      C2461   1.280       .  A
Ni2459    Ni2460   2.385       .  S
C2461      C3253   1.491       .  S
C2462      C3430   1.498       .  S
C2463      C4177   1.480       .  S
C2464      C3346   1.470       .  S
O2466     Ni2473   1.935   1_655  S
O2466      C2476   1.285       .  A
O2467     Ni2473   1.897   1_655  S
O2467      C2477   1.278       .  A
O2468      C2478   1.278       .  A
O2469     Ni2474   1.939       .  S
O2470     Ni2474   1.936       .  S
O2470      C2477   1.285       .  A
O2471     Ni2474   1.912       .  S
O2471      C2476   1.281       .  A
O2472     Ni2474   1.913       .  S
O2472      C2475   1.279   1_655  A
Ni2473    Ni2474   2.382   1_455  S
C2476      C3197   1.497       .  S
C2477      C3225   1.480       .  S
C2478      C3598   1.485       .  S
O2479     Ni2487   1.939       .  S
O2479      C2489   1.286       .  A
O2480     Ni2487   1.939       .  S
O2480      C2490   1.287       .  A
O2481     Ni2487   1.899       .  S
O2481      C2491   1.277       .  A
O2482     Ni2487   1.908       .  S
O2482      C2492   1.278       .  A
O2483     Ni2488   1.928       .  S
O2483      C2492   1.285       .  A
O2484     Ni2488   1.930       .  S
O2484      C2491   1.284       .  A
O2485     Ni2488   1.924       .  S
O2485      C2490   1.281       .  A
O2486     Ni2488   1.907       .  S
O2486      C2489   1.280       .  A
Ni2487    Ni2488   2.382       .  S
C2489      C4289   1.495       .  S
C2490      C3178   1.502       .  S
C2491      C3234   1.473       .  S
C2492      C3141   1.492       .  S
O2493     Ni2501   1.931       .  S
O2493      C2503   1.284       .  A
O2494     Ni2501   1.931       .  S
O2494      C2504   1.285       .  A
O2495     Ni2501   1.905       .  S
O2495      C2505   1.279       .  A
O2496     Ni2501   1.914       .  S
O2496      C2506   1.279       .  A
O2497     Ni2502   1.923       .  S
O2497      C2506   1.284       .  A
O2498     Ni2502   1.921       .  S
O2498      C2505   1.281       .  A
O2499     Ni2502   1.916       .  S
O2499      C2504   1.280       .  A
O2500     Ni2502   1.902       .  S
O2500      C2503   1.279       .  A
Ni2501    Ni2502   2.384       .  S
C2503      C4214   1.490       .  S
C2504      C3206   1.495       .  S
C2505      C3113   1.467       .  S
C2506      C3094   1.490       .  S
O2508     Ni2515   1.947       .  S
O2508      C2518   1.288   1_455  A
O2509     Ni2515   1.887       .  S
O2509      C2519   1.276   1_455  A
O2510      C2520   1.278       .  A
O2511     Ni2516   1.941   1_455  S
O2512     Ni2516   1.936       .  S
O2512      C2519   1.285       .  A
O2513     Ni2516   1.915       .  S
O2513      C2518   1.280       .  A
O2514     Ni2516   1.904   1_554  S
O2514      C2517   1.279   1_655  A
Ni2515    Ni2516   2.382   1_455  S
C2518      C3169   1.501       .  S
C2519      C3122   1.478       .  S
C2520      C3402   1.493       .  S
O2521     Ni2529   1.944       .  S
O2521      C2531   1.287       .  A
O2522     Ni2529   1.943       .  S
O2523     Ni2529   1.896       .  S
O2523      C2533   1.276       .  A
O2524     Ni2529   1.889       .  S
O2525     Ni2530   1.934       .  S
O2525      C2534   1.285       .  A
O2526      C2533   1.285       .  A
O2527     Ni2530   1.914       .  S
O2527      C2532   1.280       .  A
O2528      C2531   1.279       .  A
C2531      C3458   1.498       .  S
C2532      C3029   1.497       .  S
C2533      C4074   1.481       .  S
C2534      C3057   1.477       .  S
O2535     Ni2543   1.948       .  S
O2535      C2545   1.288       .  A
O2536     Ni2543   1.949       .  S
O2536      C2546   1.288       .  A
O2537     Ni2543   1.900       .  S
O2537      C2547   1.277       .  A
O2538     Ni2543   1.890       .  S
O2538      C2548   1.276       .  A
O2539     Ni2544   1.938       .  S
O2539      C2548   1.286       .  A
O2540     Ni2544   1.936       .  S
O2540      C2547   1.286       .  A
O2541     Ni2544   1.903       .  S
O2541      C2546   1.279       .  A
O2542     Ni2544   1.892       .  S
O2542      C2545   1.275       .  A
Ni2543    Ni2544   2.385       .  S
C2545      C3365   1.478       .  S
C2546      C3010   1.500       .  S
C2547      C3150   1.478       .  S
C2548      C3066   1.485       .  S
O2549     Ni2557   1.948       .  S
O2549      C2559   1.288       .  A
O2550     Ni2557   1.944       .  S
O2550      C2560   1.288       .  A
O2551     Ni2557   1.901       .  S
O2551      C2561   1.275       .  A
O2552     Ni2557   1.890       .  S
O2552      C2562   1.276       .  A
O2553     Ni2558   1.934       .  S
O2553      C2562   1.285       .  A
O2554     Ni2558   1.936       .  S
O2554      C2561   1.286       .  A
O2555     Ni2558   1.908       .  S
O2555      C2560   1.278       .  A
O2556     Ni2558   1.894       .  S
O2556      C2559   1.277       .  A
Ni2557    Ni2558   2.385       .  S
C2559      C3281   1.493       .  S
C2560      C3038   1.494       .  S
C2561      C2945   1.473       .  S
C2562      C2973   1.477       .  S
O2563     Ni2571   1.948       .  S
O2563      C2573   1.288       .  A
O2564     Ni2571   1.945       .  S
O2565     Ni2571   1.894       .  S
O2565      C2575   1.277       .  A
O2566     Ni2571   1.891       .  S
O2567     Ni2572   1.935       .  S
O2567      C2576   1.285       .  A
O2568      C2575   1.286       .  A
O2569     Ni2572   1.904       .  S
O2569      C2574   1.279       .  A
O2570      C2573   1.279       .  A
C2573      C3262   1.491       .  S
C2574      C3001   1.501       .  S
C2575      C4326   1.483       .  S
C2576      C2982   1.470       .  S
O2577     Ni2585   1.945       .  S
O2577      C2587   1.287       .  A
O2578     Ni2585   1.949       .  S
O2578      C2588   1.288       .  A
O2579     Ni2585   1.887       .  S
O2579      C2589   1.276       .  A
O2580     Ni2585   1.893       .  S
O2580      C2590   1.277       .  A
O2581     Ni2586   1.944       .  S
O2581      C2590   1.287       .  A
O2582     Ni2586   1.938       .  S
O2582      C2589   1.286       .  A
O2583     Ni2586   1.906       .  S
O2583      C2588   1.279       .  A
O2584     Ni2586   1.893       .  S
O2584      C2587   1.276       .  A
Ni2585    Ni2586   2.380       .  S
C2587      C4037   1.484       .  S
C2588      C2889   1.502       .  S
C2589      C2917   1.486       .  S
C2590      C2954   1.494       .  S
O2591     Ni2599   1.933   1_455  S
O2591      C2601   1.284   1_455  A
O2592     Ni2599   1.930       .  S
O2592      C2602   1.284       .  A
O2593     Ni2599   1.884       .  S
O2593      C2603   1.276       .  A
O2595     Ni2600   1.938       .  S
O2595      C2604   1.285   1_655  A
O2596     Ni2600   1.939       .  S
O2596      C2603   1.286       .  A
O2597     Ni2600   1.918       .  S
O2597      C2602   1.280       .  A
O2598     Ni2600   1.907       .  S
O2598      C2601   1.280       .  A
Ni2599    Ni2600   2.386       .  S
C2601      C3953   1.488   1_655  S
C2602      C2870   1.486       .  S
C2603      C2926   1.481       .  S
O2606     Ni2613   1.942   1_655  S
O2606      C2616   1.288       .  A
O2607     Ni2613   1.896   1_655  S
O2607      C2617   1.276       .  A
O2608      C2618   1.278       .  A
O2609     Ni2614   1.940       .  S
O2610     Ni2614   1.936       .  S
O2610      C2617   1.285       .  A
O2611     Ni2614   1.914       .  S
O2611      C2616   1.279       .  A
O2612     Ni2614   1.902       .  S
O2612      C2615   1.279   1_655  A
Ni2613    Ni2614   2.382   1_455  S
C2616      C2898   1.503       .  S
C2617      C2833   1.478       .  S
C2618      C3318   1.483       .  S
O2619     Ni2627   1.943       .  S
O2619      C2629   1.287       .  A
O2620     Ni2627   1.938       .  S
O2620      C2630   1.286       .  A
O2621     Ni2627   1.896       .  S
O2621      C2631   1.276       .  A
O2622     Ni2627   1.897       .  S
O2622      C2632   1.278       .  A
O2623     Ni2628   1.942       .  S
O2623      C2632   1.286       .  A
O2624     Ni2628   1.938       .  S
O2624      C2631   1.285       .  A
O2625     Ni2628   1.906       .  S
O2625      C2630   1.279       .  A
O2626     Ni2628   1.899       .  S
O2626      C2629   1.277       .  A
Ni2627    Ni2628   2.384       .  S
C2629      C3822   1.487       .  S
C2630      C2861   1.495       .  S
C2631      C2842   1.473       .  S
C2632      C2814   1.494       .  S
O2633     Ni2641   1.935       .  S
O2633      C2643   1.285       .  A
O2634     Ni2641   1.933       .  S
O2634      C2644   1.285       .  A
O2635     Ni2641   1.903       .  S
O2635      C2645   1.278       .  A
O2636     Ni2641   1.899       .  S
O2636      C2646   1.278       .  A
O2637     Ni2642   1.937       .  S
O2637      C2646   1.286       .  A
O2638     Ni2642   1.935       .  S
O2638      C2645   1.285       .  A
O2639     Ni2642   1.917       .  S
O2639      C2644   1.280       .  A
O2640     Ni2642   1.908       .  S
O2640      C2643   1.279       .  A
Ni2641    Ni2642   2.383       .  S
C2643      C3570   1.491       .  S
C2644      C2758   1.490       .  S
C2645      C3085   1.479       .  S
C2646      C2786   1.489       .  S
O2647     Ni2655   1.935       .  S
O2647      C2657   1.285       .  A
O2648     Ni2655   1.940   1_554  S
O2648      C2658   1.286       .  A
O2649     Ni2655   1.920       .  S
O2649      C2659   1.281       .  A
O2650     Ni2655   1.905       .  S
O2650      C2660   1.279   1_655  A
O2652     Ni2656   1.929       .  S
O2652      C2659   1.284       .  A
O2654     Ni2656   1.906       .  S
O2654      C2657   1.278       .  A
Ni2655    Ni2656   2.385       .  S
C2657      C3542   1.480       .  S
C2659      C3841   1.491       .  S
O2661     Ni2669   1.931       .  S
O2661      C2671   1.284       .  A
O2662     Ni2669   1.928       .  S
O2662      C2672   1.284       .  A
O2663     Ni2669   1.913       .  S
O2663      C2673   1.279       .  A
O2664     Ni2669   1.905       .  S
O2665      C2674   1.281       .  A
O2666     Ni2670   1.922       .  S
O2666      C2673   1.284       .  A
O2668     Ni2670   1.916       .  S
O2668      C2671   1.281       .  A
Ni2669    Ni2670   2.386       .  S
C2671      C3645   1.487       .  S
C2672      C2749   1.492   1_655  S
C2673      C4242   1.489       .  S
C2674      C2702   1.458       .  S
O2675     Ni2683   1.947       .  S
O2675      C2685   1.289       .  A
O2676     Ni2683   1.947       .  S
O2676      C2686   1.288       .  A
O2677     Ni2683   1.892       .  S
O2677      C2687   1.275       .  A
O2678     Ni2683   1.883       .  S
O2678      C2688   1.274       .  A
O2679     Ni2684   1.938       .  S
O2679      C2688   1.286       .  A
O2680     Ni2684   1.942       .  S
O2680      C2687   1.287       .  A
O2681     Ni2684   1.908       .  S
O2681      C2686   1.279       .  A
O2682     Ni2684   1.899       .  S
O2682      C2685   1.276       .  A
Ni2683    Ni2684   2.382       .  S
C2685      C3701   1.495       .  S
C2686      C2730   1.498       .  S
C2687      C2805   1.479       .  S
C2688      C2693   1.476       .  S
C2689      C2690   1.405       .  A
C2689      C2694   1.403       .  A
C2689      H2699   1.079       .  S
C2690      C2695   1.472       .  S
C2690      C2691   1.402       .  A
C2691      C2692   1.393       .  A
C2691      N2696   1.429       .  S
C2692      C2693   1.408       .  A
C2692      H2697   1.080       .  S
C2693      C2694   1.409       .  A
C2694      N2698   1.429       .  S
C2695      C2700   1.405       .  A
C2695      C2704   1.404       .  A
N2696      O2711   1.262       .  A
N2696      O2712   1.262       .  A
N2698      O2710   1.262       .  A
C2700      C2701   1.396       .  A
C2700      N2705   1.428       .  S
C2701      C2702   1.401       .  A
C2702      C2703   1.406       .  A
C2703      C2704   1.400       .  A
C2703      N2707   1.430       .  S
C2704      H2708   1.079       .  S
N2705      O2716   1.262       .  A
N2707      O2713   1.262       .  A
N2707      O2714   1.262       .  A
C2717      C2722   1.409       .  A
C2717      H2727   1.078       .  S
C2718      C2723   1.498       .  S
C2718      C2719   1.407       .  A
C2719      C2720   1.401       .  A
C2719      N2724   1.429       .  S
C2720      C2721   1.409       .  A
C2720      H2725   1.080       .  S
C2722      N2726   1.428       .  S
C2723      C2728   1.408       .  A
C2723      C2732   1.408       .  A
N2724      O2739   1.262       .  A
N2724      O2740   1.262       .  A
N2726      O2737   1.262       .  A
N2726      O2738   1.262       .  A
C2728      C2729   1.404       .  A
C2728      N2733   1.429       .  S
C2729      C2730   1.410       .  A
C2729      H2734   1.080       .  S
C2730      C2731   1.415       .  A
C2731      C2732   1.409       .  A
C2731      N2735   1.429       .  S
C2732      H2736   1.080       .  S
N2735      O2741   1.262       .  A
N2735      O2742   1.262       .  A
C2745      C2746   1.401       .  A
C2745      C2750   1.404       .  A
C2745      H2755   1.079       .  S
C2746      C2751   1.488       .  S
C2747      C2748   1.407       .  A
C2747      N2752   1.430       .  S
C2748      C2749   1.407       .  A
C2748      H2753   1.080   1_455  S
C2750      N2754   1.429       .  S
C2751      C2756   1.409       .  A
C2751      C2760   1.402       .  A
N2752      O2767   1.262       .  A
N2752      O2768   1.262       .  A
N2754      O2765   1.261       .  A
N2754      O2766   1.262       .  A
C2756      C2757   1.405       .  A
C2756      N2761   1.428       .  S
C2757      C2758   1.406   1_554  A
C2757      H2762   1.080       .  S
C2758      C2759   1.415       .  A
C2759      C2760   1.404   1_556  A
N2761      O2771   1.262       .  A
N2761      O2772   1.262       .  A
N2763      O2770   1.262       .  A
C2773      C2774   1.401       .  A
C2773      C2778   1.398       .  A
C2773      H2783   1.081       .  S
C2774      C2779   1.478       .  S
C2775      C2776   1.403       .  A
C2775      N2780   1.429       .  S
C2776      H2781   1.081       .  S
C2777      C2778   1.409       .  A
C2778      N2782   1.429       .  S
C2779      C2784   1.405       .  A
C2779      C2788   1.403       .  A
N2780      O2795   1.262       .  A
N2780      O2796   1.262       .  A
N2782      O2793   1.262   1_556  A
N2782      O2794   1.262       .  A
C2784      C2785   1.399       .  A
C2784      N2789   1.430       .  S
C2785      C2786   1.410       .  A
C2785      H2790   1.080       .  S
C2786      C2787   1.413       .  A
C2787      C2788   1.403       .  A
N2789      O2799   1.262       .  A
N2789      O2800   1.262       .  A
N2791      O2798   1.262       .  A
C2801      C2802   1.409       .  A
C2801      C2806   1.405       .  A
C2801      H2811   1.078       .  S
C2802      C2807   1.493       .  S
C2802      C2803   1.411       .  A
C2803      C2804   1.399       .  A
C2803      N2808   1.429       .  S
C2804      C2805   1.404       .  A
C2804      H2809   1.080       .  S
C2805      C2806   1.410       .  A
C2806      N2810   1.429       .  S
C2807      C2812   1.407       .  A
C2807      C2816   1.409       .  A
N2808      O2823   1.262       .  A
N2808      O2824   1.262       .  A
N2810      O2821   1.262       .  A
N2810      O2822   1.262       .  A
C2812      C2813   1.396       .  A
C2812      N2817   1.430       .  S
C2813      C2814   1.410       .  A
C2813      H2818   1.079       .  S
C2814      C2815   1.413       .  A
C2815      C2816   1.408       .  A
C2815      N2819   1.429       .  S
C2816      H2820   1.078       .  S
N2817      O2827   1.262       .  A
N2817      O2828   1.262       .  A
N2819      O2825   1.262       .  A
N2819      O2826   1.262       .  A
C2829      C2830   1.400       .  A
C2829      C2834   1.398       .  A
C2829      H2839   1.079       .  S
C2830      C2835   1.485       .  S
C2830      C2831   1.414       .  A
C2831      C2832   1.403       .  A
C2831      N2836   1.429       .  S
C2832      C2833   1.401       .  A
C2832      H2837   1.079       .  S
C2833      C2834   1.415       .  A
C2834      N2838   1.430       .  S
C2835      C2840   1.414       .  A
C2835      C2844   1.401       .  A
N2836      O2851   1.262       .  A
N2836      O2852   1.262       .  A
C2840      C2841   1.406       .  A
C2840      N2845   1.429       .  S
C2841      C2842   1.402       .  A
C2841      H2846   1.080       .  S
C2842      C2843   1.409       .  A
C2843      C2844   1.396       .  A
C2843      N2847   1.428       .  S
C2844      H2848   1.079       .  S
N2845      O2855   1.262       .  A
N2845      O2856   1.262       .  A
N2847      O2853   1.262       .  A
N2847      O2854   1.262       .  A
C2857      C2858   1.405       .  A
C2857      C2862   1.406       .  A
C2857      H2867   1.079       .  S
C2858      C2863   1.490       .  S
C2858      C2859   1.408       .  A
C2859      C2860   1.401       .  A
C2859      N2864   1.429       .  S
C2860      C2861   1.410       .  A
C2860      H2865   1.079       .  S
C2861      C2862   1.415       .  A
C2862      N2866   1.429       .  S
C2863      C2868   1.411       .  A
C2863      C2872   1.404       .  A
N2864      O2879   1.262       .  A
N2864      O2880   1.262       .  A
N2866      O2877   1.262       .  A
N2866      O2878   1.262       .  A
C2868      C2869   1.403       .  A
C2868      N2873   1.429       .  S
C2869      C2870   1.405       .  A
C2869      H2874   1.079       .  S
C2870      C2871   1.413       .  A
C2871      C2872   1.404       .  A
C2871      N2875   1.429       .  S
C2872      H2876   1.079       .  S
N2873      O2883   1.262       .  A
N2873      O2884   1.262       .  A
N2875      O2881   1.262       .  A
N2875      O2882   1.262       .  A
C2885      C2886   1.408       .  A
C2885      C2890   1.411       .  A
C2885      H2895   1.081       .  S
C2886      C2891   1.496       .  S
C2886      C2887   1.409       .  A
C2887      C2888   1.402       .  A
C2887      N2892   1.431       .  S
C2888      C2889   1.411       .  A
C2888      H2893   1.080       .  S
C2889      C2890   1.415       .  A
C2890      N2894   1.428       .  S
C2891      C2896   1.413       .  A
C2891      C2900   1.401       .  A
N2892      O2907   1.262       .  A
N2892      O2908   1.262       .  A
N2894      O2905   1.262       .  A
N2894      O2906   1.262       .  A
C2896      C2897   1.409       .  A
C2896      N2901   1.431       .  S
C2897      C2898   1.408       .  A
C2897      H2902   1.080       .  S
C2898      C2899   1.421       .  A
C2899      C2900   1.405       .  A
C2899      N2903   1.429       .  S
C2900      H2904   1.081       .  S
N2901      O2911   1.262       .  A
N2901      O2912   1.262       .  A
N2903      O2909   1.262       .  A
N2903      O2910   1.262       .  A
C2913      C2914   1.407       .  A
C2913      C2918   1.403       .  A
C2913      H2923   1.078       .  S
C2914      C2919   1.483       .  S
C2914      C2915   1.405       .  A
C2915      C2916   1.394       .  A
C2915      N2920   1.430       .  S
C2916      C2917   1.411       .  A
C2916      H2921   1.079       .  S
C2917      C2918   1.411       .  A
C2918      N2922   1.429       .  S
C2919      C2924   1.406       .  A
C2919      C2928   1.408       .  A
N2920      O2935   1.262       .  A
N2920      O2936   1.262       .  A
N2922      O2933   1.262       .  A
N2922      O2934   1.262       .  A
C2924      C2925   1.391       .  A
C2924      N2929   1.430       .  S
C2925      C2926   1.406       .  A
C2925      H2930   1.080       .  S
C2926      C2927   1.412       .  A
C2927      C2928   1.406       .  A
C2927      N2931   1.429       .  S
C2928      H2932   1.079       .  S
N2929      O2939   1.262       .  A
N2929      O2940   1.262       .  A
N2931      O2937   1.262       .  A
N2931      O2938   1.262       .  A
C2941      C2942   1.406       .  A
C2941      C2946   1.401       .  A
C2941      H2951   1.079       .  S
C2942      C2947   1.487       .  S
C2942      C2943   1.410       .  A
C2943      C2944   1.403       .  A
C2943      N2948   1.429       .  S
C2944      C2945   1.404       .  A
C2944      H2949   1.080       .  S
C2945      C2946   1.407       .  A
C2946      N2950   1.429       .  S
C2947      C2952   1.405       .  A
C2947      C2956   1.407       .  A
N2948      O2963   1.262       .  A
N2948      O2964   1.262       .  A
N2950      O2961   1.262       .  A
N2950      O2962   1.261       .  A
C2952      C2953   1.395       .  A
C2952      N2957   1.430       .  S
C2953      C2954   1.410       .  A
C2953      H2958   1.080       .  S
C2954      C2955   1.415       .  A
C2955      C2956   1.409       .  A
C2955      N2959   1.429       .  S
C2956      H2960   1.079       .  S
N2957      O2967   1.262       .  A
N2957      O2968   1.262       .  A
N2959      O2965   1.262       .  A
N2959      O2966   1.262       .  A
C2969      C2970   1.404       .  A
C2969      C2974   1.403       .  A
C2970      C2975   1.474       .  S
C2970      C2971   1.404       .  A
C2971      C2972   1.395       .  A
C2971      N2976   1.429       .  S
C2972      C2973   1.407       .  A
C2972      H2977   1.079       .  S
C2973      C2974   1.410       .  A
C2974      N2978   1.428       .  S
C2975      C2980   1.409       .  A
C2975      C2984   1.398       .  A
N2976      O2991   1.262       .  A
N2976      O2992   1.262       .  A
N2978      O2990   1.262       .  A
C2980      C2981   1.403       .  A
C2980      N2985   1.428       .  S
C2981      C2982   1.402       .  A
C2982      C2983   1.412       .  A
C2983      C2984   1.394       .  A
C2983      N2987   1.429       .  S
C2984      H2988   1.079       .  S
N2985      O2996   1.262       .  A
N2987      O2993   1.262       .  A
N2987      O2994   1.262       .  A
C2997      C2998   1.407       .  A
C2998      C3003   1.496       .  S
C2998      C2999   1.407       .  A
C2999      C3000   1.402       .  A
C2999      N3004   1.429       .  S
C3000      C3001   1.413       .  A
C3000      H3005   1.079       .  S
C3002      N3006   1.429       .  S
C3003      C3008   1.407       .  A
C3003      C3012   1.409       .  A
N3004      O3019   1.262       .  A
N3004      O3020   1.262       .  A
N3006      O3017   1.262       .  A
N3006      O3018   1.261       .  A
C3008      C3009   1.400       .  A
C3008      N3013   1.429       .  S
C3009      C3010   1.411       .  A
C3009      H3014   1.079       .  S
C3010      C3011   1.415       .  A
C3011      C3012   1.411       .  A
C3011      N3015   1.428       .  S
C3012      H3016   1.079       .  S
N3013      O3024   1.262       .  A
N3015      O3021   1.262       .  A
N3015      O3022   1.262       .  A
C3025      C3026   1.401       .  A
C3025      C3030   1.405       .  A
C3025      H3035   1.080       .  S
C3026      C3031   1.490       .  S
C3026      C3027   1.410       .  A
C3027      C3028   1.407       .  A
C3027      N3032   1.429       .  S
C3028      C3029   1.408       .  A
C3029      C3030   1.419       .  A
C3030      N3034   1.429       .  S
C3031      C3036   1.411       .  A
C3031      C3040   1.400       .  A
N3032      O3048   1.262       .  A
N3034      O3045   1.262       .  A
N3034      O3046   1.262       .  A
C3036      C3037   1.408       .  A
C3036      N3041   1.429       .  S
C3037      C3038   1.407       .  A
C3037      H3042   1.080       .  S
C3038      C3039   1.418       .  A
C3039      C3040   1.403       .  A
C3039      N3043   1.429       .  S
C3040      H3044   1.081       .  S
N3041      O3051   1.262       .  A
N3041      O3052   1.262       .  A
N3043      O3049   1.262       .  A
C3053      C3054   1.398       .  A
C3053      C3058   1.391       .  A
C3054      C3059   1.479       .  S
C3054      C3055   1.413       .  A
C3055      C3056   1.406       .  A
C3055      N3060   1.430       .  S
C3056      C3057   1.405       .  A
C3056      H3061   1.080       .  S
C3057      C3058   1.413       .  A
C3059      C3064   1.406       .  A
C3059      C3068   1.407       .  A
N3060      O3075   1.262       .  A
N3060      O3076   1.262       .  A
N3062      O3073   1.262       .  A
N3062      O3074   1.262       .  A
C3064      C3065   1.397       .  A
C3064      N3069   1.430       .  S
C3065      C3066   1.410       .  A
C3065      H3070   1.080       .  S
C3066      C3067   1.410       .  A
C3067      C3068   1.402       .  A
C3067      N3071   1.428       .  S
C3068      H3072   1.080       .  S
N3069      O3079   1.262       .  A
N3069      O3080   1.262       .  A
N3071      O3077   1.262       .  A
N3071      O3078   1.262       .  A
C3081      C3082   1.402   1_545  A
C3081      C3086   1.398       .  A
C3081      H3091   1.078   1_545  S
C3082      C3087   1.485       .  S
C3082      C3083   1.411       .  A
C3083      C3084   1.406   1_565  A
C3083      N3088   1.429       .  S
C3084      C3085   1.406       .  A
C3084      H3089   1.078       .  S
C3085      C3086   1.410       .  A
C3086      N3090   1.429       .  S
C3087      C3092   1.410       .  A
C3087      C3096   1.401       .  A
N3088      O3103   1.262       .  A
N3088      O3104   1.262       .  A
N3090      O3101   1.262       .  A
N3090      O3102   1.262       .  A
C3092      C3093   1.399       .  A
C3092      N3097   1.429   1_565  S
C3093      C3094   1.405       .  A
C3093      H3098   1.080       .  S
C3094      C3095   1.419       .  A
C3095      C3096   1.404       .  A
C3095      N3099   1.429       .  S
C3096      H3100   1.079       .  S
N3097      O3107   1.262       .  A
N3097      O3108   1.262       .  A
N3099      O3105   1.262       .  A
N3099      O3106   1.262       .  A
C3109      C3110   1.400       .  A
C3109      C3114   1.401       .  A
C3109      H3119   1.080   1_556  S
C3110      C3115   1.472       .  S
C3110      C3111   1.407       .  A
C3111      C3112   1.396       .  A
C3111      N3116   1.429       .  S
C3112      C3113   1.401       .  A
C3112      H3117   1.080       .  S
C3113      C3114   1.412       .  A
C3114      N3118   1.429       .  S
C3115      C3120   1.402       .  A
C3115      C3124   1.404       .  A
N3116      O3131   1.262       .  A
N3116      O3132   1.262       .  A
N3118      O3129   1.262       .  A
N3118      O3130   1.262   1_556  A
C3120      C3121   1.395       .  A
C3120      N3125   1.429       .  S
C3121      C3122   1.409       .  A
C3121      H3126   1.080   1_655  S
C3122      C3123   1.409       .  A
C3123      C3124   1.402       .  A
C3123      N3127   1.428       .  S
C3124      H3128   1.079       .  S
N3125      O3135   1.262   1_656  A
N3125      O3136   1.262   1_655  A
N3127      O3133   1.262   1_556  A
N3127      O3134   1.262       .  A
C3137      C3138   1.402       .  A
C3137      C3142   1.402       .  A
C3137      H3147   1.079       .  S
C3138      C3143   1.490       .  S
C3138      C3139   1.412       .  A
C3139      C3140   1.402       .  A
C3139      N3144   1.429       .  S
C3140      C3141   1.406       .  A
C3140      H3145   1.079       .  S
C3141      C3142   1.419       .  A
C3142      N3146   1.429       .  S
C3143      C3148   1.413       .  A
C3143      C3152   1.404       .  A
N3144      O3159   1.262       .  A
N3144      O3160   1.262       .  A
N3146      O3157   1.262       .  A
N3146      O3158   1.262       .  A
C3148      C3149   1.404       .  A
C3148      N3153   1.429       .  S
C3149      C3150   1.403       .  A
C3149      H3154   1.079       .  S
C3150      C3151   1.411       .  A
C3151      C3152   1.400       .  A
C3151      N3155   1.430       .  S
C3152      H3156   1.078       .  S
N3153      O3163   1.262       .  A
N3153      O3164   1.262       .  A
N3155      O3161   1.262       .  A
N3155      O3162   1.262       .  A
C3165      C3166   1.406       .  A
C3165      C3170   1.410       .  A
C3165      H3175   1.079       .  S
C3166      C3171   1.498       .  S
C3166      C3167   1.410       .  A
C3167      C3168   1.406       .  A
C3167      N3172   1.429       .  S
C3168      C3169   1.410       .  A
C3168      H3173   1.080       .  S
C3169      C3170   1.415       .  A
C3171      C3176   1.411       .  A
C3171      C3180   1.404       .  A
N3172      O3187   1.262       .  A
N3172      O3188   1.262       .  A
N3174      O3185   1.262       .  A
N3174      O3186   1.262       .  A
C3176      C3177   1.407       .  A
C3176      N3181   1.428       .  S
C3177      C3178   1.408       .  A
C3177      H3182   1.079       .  S
C3178      C3179   1.419       .  A
C3179      C3180   1.408       .  A
C3179      N3183   1.429       .  S
C3180      H3184   1.079       .  S
N3181      O3191   1.262       .  A
N3181      O3192   1.262       .  A
N3183      O3189   1.262       .  A
N3183      O3190   1.262       .  A
C3193      C3194   1.404       .  A
C3193      C3198   1.406       .  A
C3193      H3203   1.082       .  S
C3194      C3199   1.489       .  S
C3194      C3195   1.408       .  A
C3195      C3196   1.402       .  A
C3195      N3200   1.431       .  S
C3196      C3197   1.410       .  A
C3196      H3201   1.081       .  S
C3197      C3198   1.416       .  A
C3198      N3202   1.428       .  S
C3199      C3204   1.411       .  A
C3199      C3208   1.401       .  A
N3200      O3216   1.262       .  A
N3202      O3213   1.262       .  A
N3202      O3214   1.262   1_655  A
C3204      C3205   1.405       .  A
C3204      N3209   1.430       .  S
C3205      C3206   1.407       .  A
C3205      H3210   1.079       .  S
C3206      C3207   1.419       .  A
C3207      C3208   1.403       .  A
C3207      N3211   1.429       .  S
C3208      H3212   1.080       .  S
N3209      O3219   1.262       .  A
N3209      O3220   1.262       .  A
N3211      O3217   1.262       .  A
N3211      O3218   1.262       .  A
C3221      C3222   1.408       .  A
C3221      C3226   1.404       .  A
C3221      H3231   1.078       .  S
C3222      C3227   1.485       .  S
C3222      C3223   1.406       .  A
C3223      C3224   1.397       .  A
C3223      N3228   1.429       .  S
C3224      C3225   1.406       .  A
C3224      H3229   1.079       .  S
C3225      C3226   1.410       .  A
C3226      N3230   1.429       .  S
C3227      C3232   1.410       .  A
C3227      C3236   1.406       .  A
N3228      O3244   1.262       .  A
N3230      O3241   1.262       .  A
N3230      O3242   1.262       .  A
C3232      C3233   1.397       .  A
C3232      N3237   1.430       .  S
C3233      C3234   1.402       .  A
C3233      H3238   1.080       .  S
C3234      C3235   1.411       .  A
C3235      C3236   1.404       .  A
C3235      N3239   1.429       .  S
C3236      H3240   1.078       .  S
N3237      O3247   1.262       .  A
N3237      O3248   1.262       .  A
N3239      O3245   1.262       .  A
N3239      O3246   1.262       .  A
C3249      C3250   1.402       .  A
C3249      C3254   1.401       .  A
C3249      H3259   1.082       .  S
C3250      C3255   1.494       .  S
C3250      C3251   1.414       .  A
C3251      C3252   1.410       .  A
C3251      N3256   1.429       .  S
C3252      C3253   1.407       .  A
C3252      H3257   1.081       .  S
C3253      C3254   1.414       .  A
C3254      N3258   1.429       .  S
C3255      C3260   1.411       .  A
C3255      C3264   1.407       .  A
N3256      O3271   1.262       .  A
N3256      O3272   1.262       .  A
N3258      O3269   1.262       .  A
N3258      O3270   1.262       .  A
C3260      C3261   1.406       .  A
C3260      N3265   1.430       .  S
C3261      C3262   1.408       .  A
C3262      C3263   1.410       .  A
C3263      C3264   1.407       .  A
C3263      N3267   1.428       .  S
C3264      H3268   1.080       .  S
N3265      O3276   1.262       .  A
N3267      O3273   1.262       .  A
N3267      O3274   1.262       .  A
C3277      C3278   1.408       .  A
C3277      C3282   1.407       .  A
C3277      H3287   1.074       .  S
C3278      C3283   1.488       .  S
C3278      C3279   1.407       .  A
C3279      C3280   1.400       .  A
C3279      N3284   1.431       .  S
C3280      C3281   1.412       .  A
C3280      H3285   1.075       .  S
C3281      C3282   1.411       .  A
C3282      N3286   1.428       .  S
C3283      C3288   1.413       .  A
C3283      C3292   1.396       .  A
N3284      O3299   1.262       .  A
N3284      O3300   1.262       .  A
N3286      O3297   1.262       .  A
N3286      O3298   1.262       .  A
C3288      C3289   1.408       .  A
C3288      N3293   1.430       .  S
C3289      C3290   1.408       .  A
C3289      H3294   1.091       .  S
C3290      C3291   1.421       .  A
C3291      C3292   1.397       .  A
C3291      N3295   1.431       .  S
C3292      H3296   1.092       .  S
N3293      O3303   1.262       .  A
N3293      O3304   1.262       .  A
N3295      O3301   1.262       .  A
N3295      O3302   1.262       .  A
C3305      C3306   1.405       .  A
C3305      C3310   1.405       .  A
C3305      H3315   1.078       .  S
C3306      C3311   1.486       .  S
C3306      C3307   1.407       .  A
C3307      C3308   1.398       .  A
C3307      N3312   1.429       .  S
C3308      C3309   1.407       .  A
C3308      H3313   1.079       .  S
C3309      C3310   1.412       .  A
C3310      N3314   1.428       .  S
C3311      C3316   1.407       .  A
C3311      C3320   1.407       .  A
N3312      O3327   1.262       .  A
N3312      O3328   1.262       .  A
N3314      O3325   1.262       .  A
N3314      O3326   1.261       .  A
C3316      C3317   1.398       .  A
C3316      N3321   1.429       .  S
C3317      C3318   1.407       .  A
C3317      H3322   1.079       .  S
C3318      C3319   1.410       .  A
C3319      C3320   1.404       .  A
C3319      N3323   1.429       .  S
C3320      H3324   1.078       .  S
N3321      O3331   1.262       .  A
N3321      O3332   1.262       .  A
N3323      O3330   1.262       .  A
C3333      C3334   1.397       .  A
C3333      C3338   1.398       .  A
C3333      H3343   1.081       .  S
C3334      C3339   1.476       .  S
C3334      C3335   1.411       .  A
C3335      C3336   1.401       .  A
C3335      N3340   1.430       .  S
C3336      C3337   1.403       .  A
C3336      H3341   1.080       .  S
C3337      C3338   1.417       .  A
C3338      N3342   1.430       .  S
C3339      C3344   1.407       .  A
C3339      C3348   1.405       .  A
N3340      O3355   1.262       .  A
N3340      O3356   1.262       .  A
N3342      O3353   1.262       .  A
N3342      O3354   1.262       .  A
C3344      C3345   1.395       .  A
C3344      N3349   1.431       .  S
C3345      C3346   1.403       .  A
C3345      H3350   1.080       .  S
C3346      C3347   1.408       .  A
C3347      C3348   1.404       .  A
C3347      N3351   1.428       .  S
C3348      H3352   1.080       .  S
N3349      O3359   1.262       .  A
N3349      O3360   1.262       .  A
N3351      O3357   1.262       .  A
N3351      O3358   1.262       .  A
C3361      C3362   1.406       .  A
C3361      C3366   1.406       .  A
C3361      H3371   1.081       .  S
C3362      C3367   1.484       .  S
C3362      C3363   1.409       .  A
C3363      C3364   1.399       .  A
C3363      N3368   1.431       .  S
C3364      C3365   1.405       .  A
C3364      H3369   1.081       .  S
C3365      C3366   1.409       .  A
C3366      N3370   1.428       .  S
C3367      C3372   1.413       .  A
C3367      C3376   1.399       .  A
N3368      O3383   1.262       .  A
N3368      O3384   1.262       .  A
N3370      O3381   1.262       .  A
N3370      O3382   1.262       .  A
C3372      C3373   1.404       .  A
C3372      N3377   1.430       .  S
C3373      C3374   1.404       .  A
C3373      H3378   1.080       .  S
C3374      C3375   1.415       .  A
C3375      C3376   1.399       .  A
C3375      N3379   1.429       .  S
C3376      H3380   1.080       .  S
N3377      O3387   1.262       .  A
N3377      O3388   1.262       .  A
N3379      O3385   1.262       .  A
N3379      O3386   1.262       .  A
C3389      C3390   1.408   1_556  A
C3389      C3394   1.405   1_556  A
C3389      H3399   1.077       .  S
C3390      C3395   1.493       .  S
C3390      C3391   1.410       .  A
C3391      C3392   1.401       .  A
C3391      N3396   1.429       .  S
C3392      C3393   1.405       .  A
C3392      H3397   1.079       .  S
C3393      C3394   1.411       .  A
C3394      N3398   1.429   1_554  S
C3395      C3400   1.407       .  A
C3395      C3404   1.409       .  A
N3396      O3411   1.262       .  A
N3396      O3412   1.262       .  A
N3398      O3409   1.262       .  A
N3398      O3410   1.262       .  A
C3400      C3401   1.398   1_554  A
C3400      N3405   1.430       .  S
C3401      C3402   1.410       .  A
C3401      H3406   1.078       .  S
C3402      C3403   1.413   1_556  A
C3403      C3404   1.408       .  A
C3403      N3407   1.428       .  S
C3404      H3408   1.077       .  S
N3405      O3415   1.262   1_554  A
N3405      O3416   1.262       .  A
N3407      O3414   1.262       .  A
C3417      C3418   1.400       .  A
C3417      C3422   1.403       .  A
C3417      H3427   1.081       .  S
C3418      C3423   1.487       .  S
C3418      C3419   1.409       .  A
C3419      C3420   1.406       .  A
C3419      N3424   1.428       .  S
C3420      C3421   1.408       .  A
C3420      H3425   1.080       .  S
C3421      C3422   1.417       .  A
C3422      N3426   1.429       .  S
C3423      C3428   1.409       .  A
C3423      C3432   1.400       .  A
N3424      O3439   1.262       .  A
N3424      O3440   1.262       .  A
N3426      O3437   1.262       .  A
N3426      O3438   1.262       .  A
C3428      C3429   1.407       .  A
C3428      N3433   1.429       .  S
C3429      C3430   1.409       .  A
C3429      H3434   1.079       .  S
C3430      C3431   1.420       .  A
C3431      C3432   1.404       .  A
C3431      N3435   1.429       .  S
C3432      H3436   1.080       .  S
N3433      O3443   1.262       .  A
N3433      O3444   1.262       .  A
N3435      O3441   1.262       .  A
N3435      O3442   1.262       .  A
C3445      C3446   1.406       .  A
C3445      C3450   1.409       .  A
C3445      H3455   1.080       .  S
C3446      C3451   1.493       .  S
C3446      C3447   1.409       .  A
C3447      C3448   1.405       .  A
C3447      N3452   1.430       .  S
C3448      C3449   1.410       .  A
C3448      H3453   1.080       .  S
C3449      C3450   1.415       .  A
C3450      N3454   1.428       .  S
C3451      C3456   1.413       .  A
C3451      C3460   1.400       .  A
N3452      O3467   1.262       .  A
N3452      O3468   1.262       .  A
N3454      O3465   1.262       .  A
N3454      O3466   1.262       .  A
C3456      C3457   1.410       .  A
C3456      N3461   1.429       .  S
C3457      C3458   1.408       .  A
C3457      H3462   1.080       .  S
C3458      C3459   1.419       .  A
C3459      C3460   1.402       .  A
C3460      H3464   1.081       .  S
N3461      O3471   1.262       .  A
N3461      O3472   1.262       .  A
N3463      O3469   1.262       .  A
N3463      O3470   1.262       .  A
C3473      C3474   1.408       .  A
C3473      C3478   1.410       .  A
C3473      H3483   1.075       .  S
C3474      C3479   1.508       .  S
C3474      C3475   1.417       .  A
C3475      C3476   1.408       .  A
C3475      N3480   1.431       .  S
C3476      C3477   1.405       .  A
C3476      H3481   1.077       .  S
C3477      C3478   1.415       .  A
C3478      N3482   1.429       .  S
C3479      C3484   1.418       .  A
C3479      C3488   1.407       .  A
N3480      O3495   1.262       .  A
N3480      O3496   1.262       .  A
N3482      O3493   1.262       .  A
N3482      O3494   1.262       .  A
C3484      C3485   1.411       .  A
C3484      N3489   1.428       .  S
C3485      C3486   1.404       .  A
C3485      H3490   1.079       .  S
C3486      C3487   1.413       .  A
C3487      C3488   1.404       .  A
C3487      N3491   1.430       .  S
C3488      H3492   1.078       .  S
N3489      O3499   1.262       .  A
N3489      O3500   1.261       .  A
N3491      O3497   1.262       .  A
N3491      O3498   1.262       .  A
C3501      C3502   1.398       .  A
C3501      C3506   1.397       .  A
C3501      H3511   1.080       .  S
C3502      C3507   1.474       .  S
C3502      C3503   1.409       .  A
C3503      C3504   1.404       .  A
C3503      N3508   1.428   1_554  S
C3504      C3505   1.403       .  A
C3504      H3509   1.080   1_554  S
C3505      C3506   1.410       .  A
C3506      N3510   1.429       .  S
C3507      C3512   1.402       .  A
C3507      C3516   1.402       .  A
N3508      O3523   1.262       .  A
N3508      O3524   1.261       .  A
N3510      O3521   1.262       .  A
N3510      O3522   1.262       .  A
C3512      C3513   1.396       .  A
C3512      N3517   1.429       .  S
C3513      C3514   1.411       .  A
C3513      H3518   1.080       .  S
C3514      C3515   1.414       .  A
C3515      C3516   1.404       .  A
C3515      N3519   1.428       .  S
C3516      H3520   1.081       .  S
N3517      O3527   1.262       .  A
N3517      O3528   1.262       .  A
N3519      O3525   1.262       .  A
N3519      O3526   1.262       .  A
C3529      C3530   1.396       .  A
C3529      C3534   1.398       .  A
C3529      H3539   1.080       .  S
C3530      C3535   1.480       .  S
C3530      C3531   1.410       .  A
C3531      C3532   1.406       .  A
C3531      N3536   1.429       .  S
C3532      C3533   1.406       .  A
C3532      H3537   1.080       .  S
C3533      C3534   1.418       .  A
C3534      N3538   1.429       .  S
C3535      C3540   1.408       .  A
C3535      C3544   1.403       .  A
N3536      O3551   1.262       .  A
N3536      O3552   1.261       .  A
N3538      O3549   1.262       .  A
N3538      O3550   1.262       .  A
C3540      C3541   1.400       .  A
C3540      N3545   1.429       .  S
C3541      C3542   1.404       .  A
C3541      H3546   1.080       .  S
C3542      C3543   1.412       .  A
C3543      C3544   1.405       .  A
C3543      N3547   1.429       .  S
C3544      H3548   1.080       .  S
N3545      O3556   1.261       .  A
N3547      O3553   1.262       .  A
N3547      O3554   1.262       .  A
C3557      C3558   1.404       .  A
C3557      C3562   1.407       .  A
C3557      H3567   1.080       .  S
C3558      C3563   1.483       .  S
C3558      C3559   1.405       .  A
C3559      C3560   1.399       .  A
C3559      N3564   1.429       .  S
C3560      C3561   1.410       .  A
C3560      H3565   1.080       .  S
C3561      C3562   1.415       .  A
C3562      N3566   1.428       .  S
C3563      C3568   1.410       .  A
C3563      C3572   1.398       .  A
N3564      O3579   1.262       .  A
N3564      O3580   1.262       .  A
N3566      O3577   1.262       .  A
N3566      O3578   1.262       .  A
C3568      C3569   1.407       .  A
C3568      N3573   1.429       .  S
C3569      C3570   1.408       .  A
C3569      H3574   1.080       .  S
C3570      C3571   1.417       .  A
C3571      C3572   1.398       .  A
C3571      N3575   1.429       .  S
C3572      H3576   1.081       .  S
N3573      O3583   1.262       .  A
N3573      O3584   1.262       .  A
N3575      O3581   1.262       .  A
N3575      O3582   1.262       .  A
C3585      C3586   1.406       .  A
C3585      C3590   1.405   1_565  A
C3585      H3595   1.081       .  S
C3586      C3591   1.491       .  S
C3586      C3587   1.409   1_565  A
C3587      C3588   1.404       .  A
C3587      N3592   1.431       .  S
C3588      C3589   1.411       .  A
C3588      H3593   1.080       .  S
C3589      C3590   1.414       .  A
C3590      N3594   1.428   1_545  S
C3591      C3596   1.414       .  A
C3591      C3600   1.402       .  A
N3592      O3607   1.262       .  A
N3592      O3608   1.262       .  A
N3594      O3605   1.262       .  A
N3594      O3606   1.262       .  A
C3596      C3597   1.408       .  A
C3596      N3601   1.430       .  S
C3597      C3598   1.405       .  A
C3597      H3602   1.080       .  S
C3598      C3599   1.412       .  A
C3599      C3600   1.400       .  A
C3599      N3603   1.429       .  S
C3600      H3604   1.080       .  S
N3601      O3611   1.262       .  A
N3601      O3612   1.262       .  A
N3603      O3610   1.262       .  A
C3613      C3614   1.397       .  A
C3613      C3618   1.399       .  A
C3613      H3623   1.080       .  S
C3614      C3619   1.475       .  S
C3614      C3615   1.406       .  A
C3615      C3616   1.402       .  A
C3615      N3620   1.428       .  S
C3616      C3617   1.407       .  A
C3616      H3621   1.079       .  S
C3617      C3618   1.420       .  A
C3618      N3622   1.429       .  S
C3619      C3624   1.405       .  A
C3619      C3628   1.403       .  A
N3620      O3635   1.262       .  A
N3620      O3636   1.262       .  A
N3622      O3633   1.262       .  A
N3622      O3634   1.262       .  A
C3624      C3625   1.396       .  A
C3624      N3629   1.429       .  S
C3625      C3626   1.404       .  A
C3625      H3630   1.081       .  S
C3626      C3627   1.411       .  A
C3627      C3628   1.404       .  A
C3627      N3631   1.429       .  S
C3628      H3632   1.080       .  S
N3629      O3639   1.262       .  A
N3629      O3640   1.262       .  A
N3631      O3637   1.262       .  A
N3631      O3638   1.262       .  A
C3641      C3642   1.401       .  A
C3641      C3646   1.402       .  A
C3641      H3651   1.081       .  S
C3642      C3647   1.485       .  S
C3642      C3643   1.409       .  A
C3643      C3644   1.405       .  A
C3643      N3648   1.428       .  S
C3644      C3645   1.406       .  A
C3644      H3649   1.080       .  S
C3645      C3646   1.415       .  A
C3646      N3650   1.429       .  S
C3647      C3652   1.407       .  A
C3647      C3656   1.405       .  A
N3648      O3663   1.262       .  A
N3648      O3664   1.262       .  A
N3650      O3661   1.262       .  A
N3650      O3662   1.262       .  A
C3652      C3653   1.400       .  A
C3652      N3657   1.429       .  S
C3653      C3654   1.409       .  A
C3653      H3658   1.080       .  S
C3654      C3655   1.414       .  A
C3655      C3656   1.407       .  A
C3655      N3659   1.428       .  S
C3656      H3660   1.080       .  S
N3657      O3667   1.262       .  A
N3657      O3668   1.262       .  A
N3659      O3665   1.262       .  A
N3659      O3666   1.262       .  A
C3669      C3670   1.401       .  A
C3669      C3674   1.405       .  A
C3669      H3679   1.080       .  S
C3670      C3675   1.487       .  S
C3670      C3671   1.409       .  A
C3671      C3672   1.406       .  A
C3671      N3676   1.428       .  S
C3672      C3673   1.406       .  A
C3672      H3677   1.079       .  S
C3673      C3674   1.416       .  A
C3674      N3678   1.429       .  S
C3675      C3680   1.407       .  A
C3675      C3684   1.400       .  A
N3676      O3691   1.262       .  A
N3676      O3692   1.262       .  A
N3678      O3689   1.262       .  A
N3678      O3690   1.262       .  A
C3680      C3681   1.405       .  A
C3680      N3685   1.428       .  S
C3681      C3682   1.409       .  A
C3681      H3686   1.080       .  S
C3682      C3683   1.421       .  A
C3683      C3684   1.405       .  A
C3683      N3687   1.429       .  S
C3684      H3688   1.081       .  S
N3685      O3695   1.262       .  A
N3685      O3696   1.261       .  A
N3687      O3693   1.262       .  A
N3687      O3694   1.262       .  A
C3697      C3698   1.396       .  A
C3697      C3702   1.399       .  A
C3697      H3707   1.080       .  S
C3698      C3703   1.484       .  S
C3698      C3699   1.410       .  A
C3699      C3700   1.407       .  A
C3699      N3704   1.429       .  S
C3700      C3701   1.407       .  A
C3700      H3705   1.079       .  S
C3701      C3702   1.422       .  A
C3702      N3706   1.429       .  S
C3703      C3708   1.407       .  A
C3703      C3712   1.404       .  A
N3704      O3719   1.262       .  A
N3704      O3720   1.262       .  A
N3706      O3717   1.262       .  A
N3706      O3718   1.262       .  A
C3708      C3709   1.400       .  A
C3708      N3713   1.429       .  S
C3709      C3710   1.407       .  A
C3709      H3714   1.081       .  S
C3710      C3711   1.414       .  A
C3711      C3712   1.407       .  A
C3711      N3715   1.428       .  S
C3712      H3716   1.081       .  S
N3713      O3723   1.262       .  A
N3713      O3724   1.262       .  A
N3715      O3721   1.262       .  A
N3715      O3722   1.262       .  A
C3725      C3726   1.409       .  A
C3725      C3730   1.406       .  A
C3725      H3735   1.077       .  S
C3726      C3731   1.491       .  S
C3726      C3727   1.409       .  A
C3727      C3728   1.396       .  A
C3727      N3732   1.430       .  S
C3728      C3729   1.406       .  A
C3728      H3733   1.079       .  S
C3729      C3730   1.411       .  A
C3731      C3736   1.411       .  A
C3731      C3740   1.406       .  A
N3732      O3747   1.262       .  A
N3732      O3748   1.262       .  A
N3734      O3745   1.262       .  A
N3734      O3746   1.261       .  A
C3736      C3737   1.401       .  A
C3736      N3741   1.430       .  S
C3737      C3738   1.407       .  A
C3737      H3742   1.078       .  S
C3738      C3739   1.412       .  A
C3739      C3740   1.402       .  A
C3739      N3743   1.429       .  S
C3740      H3744   1.075       .  S
N3741      O3751   1.262       .  A
N3741      O3752   1.262       .  A
N3743      O3749   1.262       .  A
N3743      O3750   1.262       .  A
C3753      C3754   1.402       .  A
C3753      C3758   1.402       .  A
C3753      H3763   1.080       .  S
C3754      C3759   1.488       .  S
C3754      C3755   1.411       .  A
C3755      C3756   1.406       .  A
C3755      N3760   1.429       .  S
C3756      C3757   1.408       .  A
C3756      H3761   1.080       .  S
C3757      C3758   1.415       .  A
C3758      N3762   1.429       .  S
C3759      C3764   1.411       .  A
C3759      C3768   1.401       .  A
N3760      O3775   1.262       .  A
N3760      O3776   1.262       .  A
N3762      O3773   1.262       .  A
N3762      O3774   1.262       .  A
C3764      C3765   1.408       .  A
C3764      N3769   1.429       .  S
C3765      C3766   1.408       .  A
C3765      H3770   1.080       .  S
C3766      C3767   1.416       .  A
C3767      C3768   1.401       .  A
C3767      N3771   1.429       .  S
C3768      H3772   1.081       .  S
N3769      O3779   1.262       .  A
N3769      O3780   1.262       .  A
N3771      O3777   1.262       .  A
N3771      O3778   1.262       .  A
C3781      C3782   1.402       .  A
C3781      C3786   1.403       .  A
C3781      H3791   1.080       .  S
C3782      C3787   1.471       .  S
C3782      C3783   1.402       .  A
C3783      C3784   1.395       .  A
C3783      N3788   1.430       .  S
C3784      C3785   1.410       .  A
C3784      H3789   1.080       .  S
C3785      C3786   1.413       .  A
C3786      N3790   1.428       .  S
C3787      C3792   1.408       .  A
C3787      C3796   1.400       .  A
N3788      O3803   1.262       .  A
N3788      O3804   1.262       .  A
N3790      O3801   1.262       .  A
N3790      O3802   1.262       .  A
C3792      C3793   1.401       .  A
C3792      N3797   1.428       .  S
C3793      C3794   1.402       .  A
C3793      H3798   1.080       .  S
C3794      C3795   1.409       .  A
C3795      C3796   1.396       .  A
C3795      N3799   1.430       .  S
C3796      H3800   1.080       .  S
N3797      O3807   1.262       .  A
N3797      O3808   1.261       .  A
N3799      O3805   1.262       .  A
N3799      O3806   1.262       .  A
C3809      C3810   1.406       .  A
C3809      C3814   1.408       .  A
C3809      H3819   1.078       .  S
C3810      C3815   1.488       .  S
C3810      C3811   1.408       .  A
C3811      C3812   1.397       .  A
C3811      N3816   1.430       .  S
C3812      C3813   1.406       .  A
C3812      H3817   1.079       .  S
C3813      C3814   1.414       .  A
C3814      N3818   1.428       .  S
C3815      C3820   1.407       .  A
C3815      C3824   1.407       .  A
N3816      O3831   1.262       .  A
N3816      O3832   1.262       .  A
N3818      O3829   1.262       .  A
N3818      O3830   1.262       .  A
C3820      C3821   1.401       .  A
C3820      N3825   1.429       .  S
C3821      C3822   1.409       .  A
C3821      H3826   1.080       .  S
C3822      C3823   1.410       .  A
C3823      C3824   1.404       .  A
C3823      N3827   1.428       .  S
C3824      H3828   1.079       .  S
N3825      O3835   1.262       .  A
N3825      O3836   1.262       .  A
N3827      O3833   1.262       .  A
N3827      O3834   1.262       .  A
C3837      C3838   1.400       .  A
C3837      C3842   1.403       .  A
C3837      H3847   1.080       .  S
C3838      C3843   1.488       .  S
C3838      C3839   1.412       .  A
C3839      C3840   1.405       .  A
C3839      N3844   1.430       .  S
C3840      C3841   1.406       .  A
C3840      H3845   1.079       .  S
C3841      C3842   1.416       .  A
C3842      N3846   1.429       .  S
C3843      C3848   1.409       .  A
C3843      C3852   1.405       .  A
N3844      O3859   1.262   1_556  A
N3844      O3860   1.262       .  A
N3846      O3857   1.262       .  A
N3846      O3858   1.262       .  A
C3848      C3849   1.400       .  A
C3848      N3853   1.430       .  S
C3849      C3850   1.406       .  A
C3849      H3854   1.081       .  S
C3850      C3851   1.413       .  A
C3851      C3852   1.407       .  A
C3851      N3855   1.429   1_556  S
C3852      H3856   1.080   1_556  S
N3853      O3863   1.262       .  A
N3853      O3864   1.262       .  A
N3855      O3861   1.262       .  A
N3855      O3862   1.262       .  A
C3865      C3866   1.408       .  A
C3865      C3870   1.409       .  A
C3865      H3875   1.078       .  S
C3866      C3871   1.490       .  S
C3867      C3868   1.396       .  A
C3867      N3872   1.430   1_455  S
C3868      H3873   1.078   1_455  S
C3869      C3870   1.414       .  A
C3870      N3874   1.428       .  S
C3871      C3876   1.407       .  A
C3871      C3880   1.406       .  A
N3872      O3887   1.262       .  A
N3872      O3888   1.262       .  A
N3874      O3885   1.262       .  A
N3874      O3886   1.262       .  A
C3876      C3877   1.399       .  A
C3876      N3881   1.429       .  S
C3877      C3878   1.411       .  A
C3877      H3882   1.079       .  S
C3878      C3879   1.416       .  A
C3879      C3880   1.406       .  A
C3879      N3883   1.429       .  S
C3880      H3884   1.078       .  S
N3881      O3891   1.262       .  A
N3881      O3892   1.262       .  A
N3883      O3889   1.262       .  A
C3893      C3894   1.402   1_556  A
C3893      C3898   1.401       .  A
C3894      C3895   1.413       .  A
C3895      C3896   1.405       .  A
C3895      N3900   1.431       .  S
C3896      C3897   1.405       .  A
C3896      H3901   1.080       .  S
C3897      C3898   1.412   1_554  A
C3898      N3902   1.429       .  S
C3899      C3904   1.409       .  A
C3899      C3908   1.406       .  A
N3900      O3915   1.262       .  A
N3900      O3916   1.262       .  A
N3902      O3913   1.262       .  A
N3902      O3914   1.262       .  A
C3904      C3905   1.400       .  A
C3904      N3909   1.431   1_655  S
C3905      C3906   1.409       .  A
C3905      H3910   1.079       .  S
C3906      C3907   1.411       .  A
C3907      C3908   1.405       .  A
C3907      N3911   1.428       .  S
C3908      H3912   1.079       .  S
N3909      O3919   1.262   1_554  A
N3911      O3917   1.262       .  A
N3911      O3918   1.262       .  A
C3921      C3922   1.401       .  A
C3921      C3926   1.398       .  A
C3921      H3931   1.080       .  S
C3922      C3927   1.478       .  S
C3922      C3923   1.411       .  A
C3923      C3924   1.401       .  A
C3923      N3928   1.429   1_554  S
C3924      C3925   1.400       .  A
C3924      H3929   1.080   1_554  S
C3925      C3926   1.408       .  A
C3926      N3930   1.428       .  S
C3927      C3932   1.409       .  A
C3927      C3936   1.404   1_554  A
N3928      O3943   1.262       .  A
N3928      O3944   1.261       .  A
N3930      O3941   1.262       .  A
N3930      O3942   1.261       .  A
C3932      C3933   1.401       .  A
C3932      N3937   1.429       .  S
C3933      C3934   1.402       .  A
C3933      H3938   1.081       .  S
C3934      C3935   1.405   1_554  A
C3935      C3936   1.398       .  A
C3935      N3939   1.429       .  S
C3936      H3940   1.080       .  S
N3937      O3947   1.262       .  A
N3937      O3948   1.262       .  A
N3939      O3945   1.262       .  A
N3939      O3946   1.262       .  A
C3949      C3950   1.406       .  A
C3949      C3954   1.409       .  A
C3949      H3959   1.079       .  S
C3950      C3955   1.491       .  S
C3951      C3952   1.399       .  A
C3951      N3956   1.429       .  S
C3952      C3953   1.407   1_655  A
C3952      H3957   1.079       .  S
C3954      N3958   1.429       .  S
C3955      C3960   1.406       .  A
C3955      C3964   1.406       .  A
N3956      O3971   1.262       .  A
N3956      O3972   1.262       .  A
N3958      O3969   1.262       .  A
N3958      O3970   1.262       .  A
C3960      C3961   1.402       .  A
C3960      N3965   1.430       .  S
C3961      C3962   1.412       .  A
C3961      H3966   1.079       .  S
C3962      C3963   1.416       .  A
C3963      C3964   1.408       .  A
C3963      N3967   1.428       .  S
C3964      H3968   1.079       .  S
N3965      O3975   1.262       .  A
N3965      O3976   1.262       .  A
N3967      O3973   1.262       .  A
N3967      O3974   1.262       .  A
C3977      C3978   1.403       .  A
C3977      H3987   1.076       .  S
C3978      C3983   1.495       .  S
C3979      C3980   1.404       .  A
C3979      N3984   1.428       .  S
C3980      C3981   1.405       .  A
C3980      H3985   1.079       .  S
C3981      C3982   1.417       .  A
C3982      N3986   1.429       .  S
C3983      C3988   1.415       .  A
C3983      C3992   1.406       .  A
N3984      O3999   1.262       .  A
N3984      O4000   1.262       .  A
N3986      O3998   1.261       .  A
C3988      C3989   1.406       .  A
C3988      N3993   1.430       .  S
C3989      C3990   1.404       .  A
C3989      H3994   1.079       .  S
C3990      C3991   1.409       .  A
C3991      C3992   1.401       .  A
C3991      N3995   1.429       .  S
C3992      H3996   1.076       .  S
N3993      O4003   1.262       .  A
N3993      O4004   1.262       .  A
N3995      O4001   1.262       .  A
N3995      O4002   1.262       .  A
C4005      C4006   1.408       .  A
C4005      C4010   1.410       .  A
C4005      H4015   1.080       .  S
C4006      C4011   1.497       .  S
C4006      C4007   1.411       .  A
C4007      C4008   1.404       .  A
C4007      N4012   1.428       .  S
C4008      C4009   1.405       .  A
C4008      H4013   1.081       .  S
C4009      C4010   1.413       .  A
C4010      N4014   1.429       .  S
C4011      C4016   1.410       .  A
C4011      C4020   1.404       .  A
N4012      O4027   1.262       .  A
N4012      O4028   1.262       .  A
N4014      O4025   1.262       .  A
N4014      O4026   1.262       .  A
C4016      C4017   1.406       .  A
C4016      N4021   1.428       .  S
C4017      C4018   1.409       .  A
C4017      H4022   1.080       .  S
C4018      C4019   1.421       .  A
C4019      C4020   1.407       .  A
C4019      N4023   1.429       .  S
C4020      H4024   1.080       .  S
N4021      O4031   1.262       .  A
N4021      O4032   1.262       .  A
N4023      O4029   1.262       .  A
N4023      O4030   1.262       .  A
C4033      C4034   1.408       .  A
C4033      C4038   1.406       .  A
C4033      H4043   1.079       .  S
C4034      C4039   1.486       .  S
C4034      C4035   1.406       .  A
C4035      C4036   1.397       .  A
C4035      N4040   1.429       .  S
C4036      C4037   1.408       .  A
C4036      H4041   1.080       .  S
C4037      C4038   1.409       .  A
C4038      N4042   1.428       .  S
C4039      C4044   1.408       .  A
C4039      C4048   1.406       .  A
N4040      O4055   1.262       .  A
N4040      O4056   1.262       .  A
N4042      O4053   1.262       .  A
N4042      O4054   1.262       .  A
C4044      C4045   1.398       .  A
C4044      N4049   1.430       .  S
C4045      C4046   1.406       .  A
C4045      H4050   1.080       .  S
C4046      C4047   1.412       .  A
C4047      C4048   1.405       .  A
C4047      N4051   1.429       .  S
C4048      H4052   1.079       .  S
N4049      O4059   1.262       .  A
N4049      O4060   1.262       .  A
N4051      O4057   1.262       .  A
N4051      O4058   1.262       .  A
C4061      C4062   1.403       .  A
C4061      C4066   1.399       .  A
C4061      H4071   1.082       .  S
C4062      C4067   1.477       .  S
C4062      C4063   1.408       .  A
C4063      C4064   1.398       .  A
C4063      N4068   1.430       .  S
C4064      C4065   1.404       .  A
C4064      H4069   1.081       .  S
C4065      C4066   1.409       .  A
C4066      N4070   1.429       .  S
C4067      C4072   1.411       .  A
C4067      C4076   1.397       .  A
N4068      O4083   1.262       .  A
N4068      O4084   1.262       .  A
N4070      O4081   1.262       .  A
N4070      O4082   1.262       .  A
C4072      C4073   1.404       .  A
C4072      N4077   1.430       .  S
C4073      C4074   1.404       .  A
C4073      H4078   1.080       .  S
C4074      C4075   1.417       .  A
C4075      C4076   1.394       .  A
C4075      N4079   1.430       .  S
C4076      H4080   1.081       .  S
N4077      O4087   1.262       .  A
N4077      O4088   1.262       .  A
N4079      O4085   1.262       .  A
N4079      O4086   1.262       .  A
C4089      C4090   1.402       .  A
C4089      C4094   1.405       .  A
C4089      H4099   1.080       .  S
C4090      C4095   1.484       .  S
C4090      C4091   1.408       .  A
C4091      C4092   1.404       .  A
C4091      N4096   1.428       .  S
C4092      C4093   1.406       .  A
C4092      H4097   1.080       .  S
C4093      C4094   1.414       .  A
C4094      N4098   1.429       .  S
C4095      C4100   1.404       .  A
C4095      C4104   1.404       .  A
N4096      O4111   1.262       .  A
N4096      O4112   1.262       .  A
N4098      O4109   1.262       .  A
N4098      O4110   1.262       .  A
C4100      C4101   1.400       .  A
C4100      N4105   1.429       .  S
C4101      C4102   1.411       .  A
C4101      H4106   1.079       .  S
C4102      C4103   1.415       .  A
C4103      C4104   1.408       .  A
C4103      N4107   1.428       .  S
C4104      H4108   1.080       .  S
N4105      O4115   1.262       .  A
N4105      O4116   1.262       .  A
N4107      O4113   1.262       .  A
N4107      O4114   1.262       .  A
C4117      C4118   1.403       .  A
C4117      C4122   1.404       .  A
C4117      H4127   1.081       .  S
C4118      C4123   1.472       .  S
C4118      C4119   1.402       .  A
C4119      C4120   1.392       .  A
C4119      N4124   1.430       .  S
C4120      C4121   1.408       .  A
C4120      H4125   1.081       .  S
C4121      C4122   1.413       .  A
C4122      N4126   1.428       .  S
C4123      C4128   1.407       .  A
C4123      C4132   1.402       .  A
N4124      O4139   1.262       .  A
N4124      O4140   1.262       .  A
N4126      O4137   1.262       .  A
N4126      O4138   1.262       .  A
C4128      C4129   1.397       .  A
C4128      N4133   1.430       .  S
C4129      C4130   1.402       .  A
C4129      H4134   1.080       .  S
C4130      C4131   1.408       .  A
C4131      C4132   1.401       .  A
C4131      N4135   1.429       .  S
C4132      H4136   1.080       .  S
N4133      O4143   1.262       .  A
N4133      O4144   1.262       .  A
N4135      O4141   1.262       .  A
N4135      O4142   1.261       .  A
C4145      C4146   1.408       .  A
C4145      C4150   1.408       .  A
C4145      H4155   1.079       .  S
C4146      C4151   1.487       .  S
C4147      C4148   1.399       .  A
C4147      N4152   1.428   1_455  S
C4148      H4153   1.080   1_455  S
C4149      C4150   1.411       .  A
C4150      N4154   1.429       .  S
C4151      C4156   1.408       .  A
C4151      C4160   1.404       .  A
N4152      O4167   1.262       .  A
N4152      O4168   1.262       .  A
N4154      O4165   1.262       .  A
N4154      O4166   1.262       .  A
C4156      C4157   1.401       .  A
C4156      N4161   1.429       .  S
C4157      C4158   1.405       .  A
C4157      H4162   1.080       .  S
C4158      C4159   1.414       .  A
C4159      C4160   1.406       .  A
C4159      N4163   1.429       .  S
C4160      H4164   1.079       .  S
N4161      O4171   1.262       .  A
N4161      O4172   1.262       .  A
N4163      O4169   1.262       .  A
N4163      O4170   1.262       .  A
C4173      C4174   1.407       .  A
C4173      C4178   1.405       .  A
C4173      H4183   1.080       .  S
C4174      C4175   1.409       .  A
C4175      C4176   1.399       .  A
C4176      C4177   1.406       .  A
C4176      H4181   1.080       .  S
C4177      C4178   1.408       .  A
C4178      N4182   1.428       .  S
C4179      C4184   1.412       .  A
C4179      C4188   1.402       .  A
N4180      O4195   1.262       .  A
N4180      O4196   1.262       .  A
N4182      O4193   1.262       .  A
N4182      O4194   1.262       .  A
C4184      C4185   1.405       .  A
C4184      N4189   1.430       .  S
C4185      C4186   1.406       .  A
C4185      H4190   1.080       .  S
C4186      C4187   1.415       .  A
C4187      C4188   1.404       .  A
C4187      N4191   1.429       .  S
C4188      H4192   1.081       .  S
N4189      O4199   1.262       .  A
N4191      O4197   1.262       .  A
N4191      O4198   1.262       .  A
C4201      C4202   1.405       .  A
C4201      C4206   1.405       .  A
C4201      H4211   1.078       .  S
C4202      C4207   1.485       .  S
C4202      C4203   1.406       .  A
C4203      C4204   1.396       .  A
C4203      N4208   1.430       .  S
C4204      C4205   1.409       .  A
C4204      H4209   1.079       .  S
C4205      C4206   1.415       .  A
C4206      N4210   1.429       .  S
C4207      C4212   1.406       .  A
C4207      C4216   1.405       .  A
N4208      O4223   1.262       .  A
N4208      O4224   1.262       .  A
N4210      O4221   1.262       .  A
N4210      O4222   1.262       .  A
C4212      C4213   1.396       .  A
C4212      N4217   1.429       .  S
C4213      C4214   1.409   1_554  A
C4213      H4218   1.079       .  S
C4214      C4215   1.415   1_556  A
C4215      C4216   1.404       .  A
C4215      N4219   1.428   1_554  S
C4216      H4220   1.079       .  S
N4217      O4227   1.262       .  A
N4217      O4228   1.261       .  A
N4219      O4225   1.262       .  A
N4219      O4226   1.262       .  A
C4229      C4230   1.402       .  A
C4229      C4234   1.400       .  A
C4229      H4239   1.080       .  S
C4230      C4235   1.479   1_565  S
C4230      C4231   1.411       .  A
C4231      C4232   1.400       .  A
C4231      N4236   1.430       .  S
C4232      C4233   1.399       .  A
C4232      H4237   1.080       .  S
C4233      C4234   1.409       .  A
C4234      N4238   1.429       .  S
C4235      C4240   1.409   1_545  A
C4235      C4244   1.399       .  A
N4236      O4251   1.262   1_565  A
N4236      O4252   1.262       .  A
N4238      O4249   1.262       .  A
N4238      O4250   1.262       .  A
C4240      C4241   1.400   1_565  A
C4240      N4245   1.431       .  S
C4241      C4242   1.407       .  A
C4241      H4246   1.080       .  S
C4242      C4243   1.417       .  A
C4243      C4244   1.401       .  A
C4243      N4247   1.429       .  S
C4244      H4248   1.081       .  S
N4245      O4255   1.262       .  A
N4245      O4256   1.262       .  A
N4247      O4253   1.262       .  A
N4247      O4254   1.262       .  A
C4257      C4258   1.400       .  A
C4257      C4262   1.398       .  A
C4257      H4267   1.078       .  S
C4258      C4263   1.479       .  S
C4258      C4259   1.410       .  A
C4259      C4260   1.398       .  A
C4259      N4264   1.429       .  S
C4260      C4261   1.404       .  A
C4260      H4265   1.079       .  S
C4261      C4262   1.417       .  A
C4262      N4266   1.430       .  S
C4263      C4268   1.410       .  A
C4263      C4272   1.402       .  A
N4264      O4279   1.262       .  A
N4264      O4280   1.262       .  A
N4266      O4277   1.262       .  A
N4266      O4278   1.262       .  A
C4268      C4269   1.400       .  A
C4268      N4273   1.429       .  S
C4269      C4270   1.404       .  A
C4269      H4274   1.080       .  S
C4270      C4271   1.410       .  A
C4271      C4272   1.396       .  A
C4271      N4275   1.428       .  S
C4272      H4276   1.079       .  S
N4273      O4283   1.262       .  A
N4273      O4284   1.262       .  A
N4275      O4281   1.262       .  A
N4275      O4282   1.262       .  A
C4285      C4286   1.408       .  A
C4285      C4290   1.409       .  A
C4285      H4295   1.078       .  S
C4286      C4291   1.495       .  S
C4286      C4287   1.409       .  A
C4287      C4288   1.399       .  A
C4287      N4292   1.430       .  S
C4288      C4289   1.408       .  A
C4288      H4293   1.079       .  S
C4289      C4290   1.415       .  A
C4290      N4294   1.428       .  S
C4291      C4296   1.409       .  A
C4291      C4300   1.408       .  A
N4292      O4307   1.262       .  A
N4292      O4308   1.262       .  A
N4294      O4305   1.262       .  A
N4294      O4306   1.262       .  A
C4296      C4297   1.401       .  A
C4296      N4301   1.429       .  S
C4297      C4298   1.408       .  A
C4297      H4302   1.079       .  S
C4298      C4299   1.412       .  A
C4299      C4300   1.406       .  A
C4299      N4303   1.428       .  S
C4300      H4304   1.078       .  S
N4301      O4311   1.262       .  A
N4301      O4312   1.262       .  A
N4303      O4309   1.262       .  A
N4303      O4310   1.262       .  A
C4313      C4314   1.401       .  A
C4313      C4318   1.398       .  A
C4313      H4323   1.081       .  S
C4314      C4319   1.482       .  S
C4314      C4315   1.413       .  A
C4315      C4316   1.402       .  A
C4315      N4320   1.431       .  S
C4316      C4317   1.403       .  A
C4316      H4321   1.081       .  S
C4317      C4318   1.414       .  A
C4318      N4322   1.430       .  S
C4319      C4324   1.407       .  A
C4319      C4328   1.406       .  A
N4320      O4335   1.262       .  A
N4320      O4336   1.262       .  A
N4322      O4333   1.262       .  A
N4322      O4334   1.262       .  A
C4324      C4325   1.397       .  A
C4324      N4329   1.431       .  S
C4325      C4326   1.408       .  A
C4325      H4330   1.080       .  S
C4326      C4327   1.410       .  A
C4327      C4328   1.403       .  A
C4327      N4331   1.428       .  S
C4328      H4332   1.081       .  S
N4329      O4339   1.262       .  A
N4329      O4340   1.262       .  A
N4331      O4337   1.262       .  A
N4331      O4338   1.262       .  A
C4341      C4342   1.404       .  A
C4341      C4346   1.407       .  A
C4341      H4351   1.079       .  S
C4342      C4347   1.489       .  S
C4342      C4343   1.407       .  A
C4343      C4344   1.401       .  A
C4343      N4348   1.429       .  S
C4344      C4345   1.409       .  A
C4344      H4349   1.079       .  S
C4345      C4346   1.417       .  A
C4346      N4350   1.428       .  S
C4347      C4352   1.411       .  A
C4347      C4356   1.402       .  A
N4348      O4363   1.262       .  A
N4348      O4364   1.262       .  A
N4350      O4361   1.261       .  A
N4350      O4362   1.262       .  A
C4352      C4353   1.407       .  A
C4352      N4357   1.428       .  S
C4353      C4354   1.406       .  A
C4353      H4358   1.079       .  S
C4354      C4355   1.414       .  A
C4355      C4356   1.402       .  A
C4355      N4359   1.429       .  S
C4356      H4360   1.079       .  S
N4357      O4367   1.262       .  A
N4357      O4368   1.262       .  A
N4359      O4365   1.262       .  A
N4359      O4366   1.262       .  A
C4369      C4370   1.401       .  A
C4369      C4374   1.402       .  A
C4369      H4379   1.079       .  S
C4370      C4375   1.490       .  S
C4370      C4371   1.410       .  A
C4371      C4372   1.407       .  A
C4371      N4376   1.429       .  S
C4372      C4373   1.408       .  A
C4372      H4377   1.079       .  S
C4373      C4374   1.418       .  A
C4374      N4378   1.429       .  S
C4375      C4380   1.411       .  A
N4378      O4389   1.262       .  A
N4378      O4390   1.262       .  A
C4380      C4381   1.405       .  A
C4380      N4385   1.429       .  S
C4381      C4382   1.407       .  A
C4381      H4386   1.080       .  S
C4383      C4384   1.403   1_655  A
C4383      N4387   1.429       .  S
C4384      H4388   1.080   1_455  S
N4385      O4395   1.262       .  A
N4385      O4396   1.262       .  A
N4387      O4393   1.262       .  A
N4387      O4394   1.262       .  A
C4397      C4402   1.402       .  A
C4397      H4407   1.078       .  S
C4398      C4403   1.486       .  S
C4398      C4399   1.407       .  A
C4399      N4404   1.429       .  S
C4400      C4401   1.411       .  A
C4400      H4405   1.079       .  S
C4401      C4402   1.413       .  A
C4402      N4406   1.429       .  S
C4403      C4408   1.410   1_565  A
C4403      C4412   1.407       .  A
N4404      O4419   1.262       .  A
N4404      O4420   1.262       .  A
N4406      O4417   1.262       .  A
N4406      O4418   1.262       .  A
C4408      C4409   1.397       .  A
C4408      N4413   1.430   1_545  S
C4409      C4410   1.402       .  A
C4409      H4414   1.079       .  S
C4410      C4411   1.409       .  A
C4411      C4412   1.405   1_545  A
C4411      N4415   1.429       .  S
C4412      H4416   1.077       .  S
N4413      O4423   1.262   1_565  A
N4413      O4424   1.262       .  A
N4415      O4421   1.262       .  A
N4415      O4422   1.262       .  A
C4425      C4426   1.405       .  A
C4425      C4430   1.409       .  A
C4425      H4435   1.079       .  S
C4426      C4431   1.491       .  S
C4426      C4427   1.406       .  A
C4427      C4428   1.402       .  A
C4427      N4432   1.429       .  S
C4428      C4429   1.411       .  A
C4428      H4433   1.079       .  S
C4429      C4430   1.418       .  A
C4430      N4434   1.428       .  S
C4431      C4436   1.409       .  A
C4431      C4440   1.406       .  A
N4432      O4447   1.262       .  A
N4432      O4448   1.262       .  A
N4434      O4445   1.262       .  A
N4434      O4446   1.262       .  A
C4436      C4437   1.404       .  A
C4436      N4441   1.428       .  S
C4437      C4438   1.404       .  A
C4437      H4442   1.080       .  S
C4438      C4439   1.411       .  A
C4439      C4440   1.406       .  A
C4439      N4443   1.429       .  S
C4440      H4444   1.079       .  S
N4441      O4451   1.262       .  A
N4441      O4452   1.261       .  A
N4443      O4449   1.262       .  A
N4443      O4450   1.262       .  A
C4453      C4454   1.403       .  A
C4453      C4458   1.402       .  A
C4453      H4463   1.079       .  S
C4454      C4459   1.475       .  S
C4454      C4455   1.407       .  A
C4455      C4456   1.394       .  A
C4455      N4460   1.430       .  S
C4456      C4457   1.404       .  A
C4456      H4461   1.080       .  S
C4457      C4458   1.412       .  A
C4458      N4462   1.429       .  S
C4459      C4464   1.403       .  A
C4459      C4468   1.404       .  A
N4460      O4475   1.262       .  A
N4460      O4476   1.262       .  A
N4462      O4473   1.262       .  A
N4462      O4474   1.262       .  A
C4464      C4465   1.394       .  A
C4464      N4469   1.429       .  S
C4465      C4466   1.409       .  A
C4465      H4470   1.080       .  S
C4466      C4467   1.412       .  A
C4467      C4468   1.401       .  A
C4467      N4471   1.429       .  S
C4468      H4472   1.079       .  S
N4469      O4479   1.262       .  A
N4469      O4480   1.262       .  A
N4471      O4477   1.262       .  A
N4471      O4478   1.262       .  A
