geometry optimzed in LAMMPS
_audit_creation_date              2020-12-01 
_audit_creation_method            'lammps2cif' 
_symmetry_space_group_name_H-M    'P1' 
_symmetry_Int_Tables_number       1 
_symmetry_cell_setting            triclinic 
loop_ 
_symmetry_equiv_pos_as_xyz 
  x,y,z 
_cell_length_a                    51.61840355 
_cell_length_b                    34.50038679569455 
_cell_length_c                    65.3516810422395 
_cell_angle_alpha                 90.1115897660579 
_cell_angle_beta                  89.57044091858033 
_cell_angle_gamma                 90.05425132864035 
loop_ 
_atom_site_label 
_atom_site_type_symbol 
_atom_site_fract_x 
_atom_site_fract_y 
_atom_site_fract_z 
_atom_site_charge 
Fe1        Fe  0.66654338  0.43606357  0.63243286     1.65800
Fe2        Fe  0.66038705  0.34928436  0.60745400     1.73200
Fe3        Fe  0.71959589  0.37820056  0.62458988     1.54400
O4          O  0.73123968  0.43373878  0.61702885    -0.82000
O5          O  0.67242232  0.30451979  0.62593573    -0.80300
O6          O  0.69734579  0.47052581  0.62447260    -0.84500
O7          O  0.68218119  0.42680262  0.66167369    -0.79300
O8          O  0.72553677  0.36294781  0.59435544    -0.81100
O9          O  0.62784005  0.35618119  0.62564417    -0.83900
C10         C  0.70307845  0.41032743  0.66754057     0.96900
C11         C  0.72062475  0.46664074  0.61873322     1.04300
O12         O  0.68210747  0.38779977  0.62165309    -1.12800
O13         O  0.64764315  0.39120349  0.58756735    -0.75300
O14         O  0.65103626  0.44841709  0.60368806    -0.78800
O15         O  0.71811001  0.39243270  0.65523046    -0.79400
C16         C  0.64570653  0.42799870  0.58790762     0.95800
O17         O  0.63194538  0.41184657  0.64214895    -0.77400
O18         O  0.68848350  0.33444352  0.58628342    -0.82600
C19         C  0.69504023  0.29624375  0.63216047     0.98400
C20         C  0.71205438  0.34204602  0.58254242     1.04400
O21         O  0.71356276  0.32063495  0.63218054    -0.78200
C22         C  0.61889424  0.38211921  0.63743055     1.02700
Fe23       Fe  0.84412345  0.09107718  0.37684400     1.65800
Fe24       Fe  0.84891654  0.17298867  0.40625190     1.73200
Fe25       Fe  0.78991943  0.14485809  0.38752899     1.54400
O26         O  0.79104124  0.13448843  0.35635656    -0.82000
O27         O  0.82205078  0.17786463  0.42938504    -0.80300
O28         O  0.82795412  0.10402635  0.34814416    -0.84500
O29         O  0.81418371  0.05406096  0.38339510    -0.79300
O30         O  0.79453807  0.20344638  0.38194153    -0.81100
O31         O  0.86495002  0.12840127  0.42289045    -0.83900
C32         C  0.79105839  0.05595992  0.38976853     0.96900
C33         C  0.80620745  0.11909610  0.34320637     1.04300
O34         O  0.82767890  0.13654705  0.39000647    -1.12800
O35         O  0.87976292  0.17403713  0.38604487    -0.75300
O36         O  0.87795303  0.11926554  0.36834473    -0.78800
O37         O  0.77962580  0.08784896  0.39299114    -0.79400
C38         C  0.88945033  0.15030552  0.37333270     0.95800
O39         O  0.85989045  0.07396898  0.40477323    -0.77400
O40         O  0.83399972  0.22141418  0.39202335    -0.82600
C41         C  0.79841227  0.16979543  0.43236568     0.98400
C42         C  0.81189314  0.22911687  0.38461880     1.04400
O43         O  0.78423173  0.15557662  0.41844789    -0.78200
C44         C  0.86613590  0.09174158  0.42117467     1.02700
Fe45       Fe  0.33471752  0.42523735  0.63470477     1.65800
Fe46       Fe  0.33926396  0.34334616  0.60537260     1.73200
Fe47       Fe  0.28106434  0.36803787  0.62730529     1.54400
O48         O  0.28431765  0.37928157  0.65818786    -0.82000
O49         O  0.31080432  0.33599421  0.58402342    -0.80300
O50         O  0.32102405  0.41177473  0.66419240    -0.84500
O51         O  0.30321071  0.46035843  0.63015898    -0.79300
O52         O  0.28783858  0.30987364  0.63340124    -0.81100
O53         O  0.35303165  0.38825319  0.58775671    -0.83900
C54         C  0.27969178  0.45740036  0.62506428     0.96900
C55         C  0.30017858  0.39529951  0.67037904     1.04300
O56         O  0.31834575  0.37876946  0.62256912    -1.12800
O57         O  0.37158243  0.34443652  0.62358581    -0.75300
O58         O  0.36985710  0.39899066  0.64142201    -0.78800
O59         O  0.26906413  0.42473234  0.62188361    -0.79400
C60         C  0.38164425  0.36849989  0.63580156     0.95800
O61         O  0.34843372  0.44279748  0.60592898    -0.77400
O62         O  0.32693114  0.29491432  0.62087278    -0.82600
C63         C  0.28665389  0.34126217  0.58245614     0.98400
C64         C  0.30598273  0.28570695  0.62992519     1.04400
O65         O  0.27300554  0.35500175  0.59698490    -0.78200
C66         C  0.35436198  0.42488098  0.58940772     1.02700
Fe67       Fe  0.16971594  0.08440992  0.37583642     1.65800
Fe68       Fe  0.16354685  0.17088574  0.40089981     1.73200
Fe69       Fe  0.22302313  0.14258075  0.38296145     1.54400
O70         O  0.23494366  0.08576956  0.38876554    -0.82000
O71         O  0.17659256  0.21695935  0.38369760    -0.80300
O72         O  0.19968750  0.04995901  0.38461883    -0.84500
O73         O  0.18665890  0.09225620  0.34677431    -0.79300
O74         O  0.22869121  0.15577544  0.41356787    -0.81100
O75         O  0.13250581  0.16612941  0.38153145    -0.83900
C76         C  0.20677141  0.11048270  0.34041514     0.96900
C77         C  0.22348588  0.05318587  0.38857331     1.04300
O78         O  0.18544494  0.13264770  0.38641776    -1.12800
O79         O  0.14887587  0.12910064  0.42021860    -0.75300
O80         O  0.15277787  0.07192669  0.40444778    -0.78800
O81         O  0.22100264  0.13054681  0.35221288    -0.79400
C82         C  0.14675918  0.09241556  0.42008923     0.95800
O83         O  0.13632259  0.11019309  0.36513605    -0.77400
O84         O  0.19093364  0.18192124  0.42266364    -0.82600
C85         C  0.19911213  0.22568066  0.37729509     0.98400
C86         C  0.21439076  0.17390998  0.42627128     1.04400
O87         O  0.21751069  0.20113602  0.37651598    -0.78200
C88         C  0.12401292  0.14104750  0.36913099     1.02700
Fe89       Fe  0.16783604  0.93076323  0.63148257     1.65800
Fe90       Fe  0.16029992  0.84499031  0.60570974     1.73200
Fe91       Fe  0.21951679  0.86915201  0.62551782     1.54400
O92         O  0.23341704  0.92437756  0.61941533    -0.82000
O93         O  0.17187819  0.79713897  0.62233533    -0.80300
O94         O  0.19981578  0.96327292  0.62438878    -0.84500
O95         O  0.18233650  0.92112754  0.66107240    -0.79300
O96         O  0.22651523  0.85467952  0.59525522    -0.81100
O97         O  0.12842788  0.85055541  0.62485254    -0.83900
C98         C  0.20200433  0.90261500  0.66779517     0.96900
C99         C  0.22357970  0.95795258  0.62055612     1.04300
O100        O  0.18253045  0.88156583  0.62102245    -1.12800
O101        O  0.14682554  0.88837888  0.58683772    -0.75300
O102        O  0.15317809  0.94507856  0.60258501    -0.78800
O103        O  0.21658641  0.88237950  0.65619562    -0.79400
C104        C  0.14599992  0.92521285  0.58710457     0.95800
O105        O  0.13266572  0.90735197  0.64041065    -0.77400
O106        O  0.18839803  0.83377318  0.58399271    -0.82600
C107        C  0.19332236  0.78780628  0.63037015     0.98400
C108        C  0.21252539  0.83919800  0.58158136     1.04400
O109        O  0.21187006  0.81170555  0.63244441    -0.78200
C110        C  0.11967738  0.87712711  0.63640097     1.02700
Fe111      Fe  0.34012042  0.58290467  0.37524794     1.65800
Fe112      Fe  0.34876669  0.66513587  0.40389355     1.73200
Fe113      Fe  0.28911197  0.64432755  0.38429617     1.54400
O114        O  0.29097835  0.63504424  0.35323399    -0.82000
O115        O  0.32080494  0.67712872  0.42563199    -0.80300
O116        O  0.32453189  0.59579404  0.34651657    -0.84500
O117        O  0.30836072  0.54984485  0.38222721    -0.79300
O118        O  0.29733590  0.70266660  0.37988741    -0.81100
O119        O  0.36012547  0.61916639  0.42183105    -0.83900
C120        C  0.28472348  0.55496501  0.38657280     0.96900
C121        C  0.30466235  0.61504698  0.34087354     1.04300
O122        O  0.32604756  0.63091478  0.38761072    -1.12800
O123        O  0.38093724  0.65940363  0.38509371    -0.75300
O124        O  0.37501257  0.60695899  0.36608751    -0.78800
O125        O  0.27495064  0.58849172  0.38847783    -0.79400
C126        C  0.38878439  0.63536661  0.37175477     0.95800
O127        O  0.35539978  0.56520314  0.40324705    -0.77400
O128        O  0.33848038  0.71454895  0.38803457    -0.82600
C129        C  0.29683059  0.67093401  0.42837117     0.98400
C130        C  0.31643089  0.72575711  0.38181889     1.04400
O131        O  0.28288755  0.65459457  0.41499627    -0.78200
C132        C  0.36100352  0.58248571  0.41992980     1.02700
Fe133      Fe  0.83558858  0.93222571  0.63606033     1.65800
Fe134      Fe  0.84042272  0.85316615  0.60499020     1.73200
Fe135      Fe  0.78173411  0.87821133  0.62575355     1.54400
O136        O  0.78327149  0.88993822  0.65662403    -0.82000
O137        O  0.81353200  0.85032897  0.58226309    -0.80300
O138        O  0.82198411  0.91418493  0.66495899    -0.84500
O139        O  0.80384411  0.96770768  0.63327505    -0.79300
O140        O  0.78744530  0.82011461  0.63209146    -0.81100
O141        O  0.85658556  0.89950717  0.58956136    -0.83900
C142        C  0.78134534  0.96643684  0.62573132     0.96900
C143        C  0.79942540  0.90157966  0.66988516     1.04300
O144        O  0.81925958  0.88757292  0.62237236    -1.12800
O145        O  0.87108702  0.84982915  0.62476369    -0.75300
O146        O  0.87122292  0.90583209  0.64128843    -0.78800
O147        O  0.77129560  0.93497024  0.61962026    -0.79400
C148        C  0.88211878  0.87426968  0.63620685     0.95800
O149        O  0.84857538  0.95328177  0.60768623    -0.77400
O150        O  0.82549602  0.80359812  0.61809625    -0.82600
C151        C  0.78926560  0.85391629  0.58066359     0.98400
C152        C  0.80459222  0.79503874  0.62744876     1.04400
O153        O  0.77502037  0.86506292  0.59540628    -0.78200
C154        C  0.85620277  0.93624228  0.59131721     1.02700
Fe155      Fe  0.67085067  0.59026836  0.37689794     1.65800
Fe156      Fe  0.66371603  0.67623297  0.40244271     1.73200
Fe157      Fe  0.72357094  0.64886989  0.38486471     1.54400
O158        O  0.73553716  0.59308197  0.39160298    -0.82000
O159        O  0.67726045  0.72308521  0.38602107    -0.80300
O160        O  0.70186913  0.55598355  0.38412177    -0.84500
O161        O  0.68688876  0.60002831  0.34772010    -0.79300
O162        O  0.72866418  0.66321392  0.41537872    -0.81100
O163        O  0.63334233  0.67256074  0.38251541    -0.83900
C164        C  0.70803895  0.61622130  0.34187996     0.96900
C165        C  0.72519501  0.56004263  0.38945324     1.04300
O166        O  0.68604755  0.63858956  0.38786110    -1.12800
O167        O  0.64858702  0.63352841  0.42101987    -0.75300
O168        O  0.65567748  0.57645490  0.40571451    -0.78800
O169        O  0.72255296  0.63510122  0.35406610    -0.79400
C170        C  0.64852545  0.59669491  0.42112175     0.95800
O171        O  0.63608517  0.61501496  0.36763080    -0.77400
O172        O  0.69027801  0.68644758  0.42487612    -0.82600
C173        C  0.69967255  0.73156248  0.37926518     0.98400
C174        C  0.71393963  0.67983386  0.42833373     1.04400
O175        O  0.71784161  0.70678870  0.37793278    -0.78200
C176        C  0.62415078  0.64652650  0.37104929     1.02700
Fe177      Fe  0.83718391  0.42572817  0.87698668     1.65800
Fe178      Fe  0.84111140  0.33891345  0.90185713     1.73200
Fe179      Fe  0.78206669  0.37255778  0.88673114     1.54400
O180        O  0.77310389  0.42933397  0.89452396    -0.82000
O181        O  0.82604116  0.29504077  0.88406201    -0.80300
O182        O  0.80865905  0.46267137  0.88686659    -0.84500
O183        O  0.81869603  0.41914248  0.84862697    -0.79300
O184        O  0.77725105  0.35750117  0.91733341    -0.81100
O185        O  0.87216381  0.34243267  0.88208670    -0.83900
C186        C  0.79689496  0.40451834  0.84342494     0.96900
C187        C  0.78536971  0.46105002  0.89292408     1.04300
O188        O  0.82012400  0.37906357  0.88837511    -1.12800
O189        O  0.85720337  0.37950021  0.92112900    -0.75300
O190        O  0.85568383  0.43644376  0.90482369    -0.78800
O191        O  0.78217408  0.38692792  0.85607077    -0.79400
C192        C  0.86097849  0.41592546  0.92051026     0.95800
O193        O  0.86968470  0.39776165  0.86517567    -0.77400
O194        O  0.81418074  0.32779719  0.92437006    -0.82600
C195        C  0.80307458  0.28880534  0.87796706     0.98400
C196        C  0.79120648  0.33717775  0.92909202     1.04400
O197        O  0.78546835  0.31461905  0.87858566    -0.78200
C198        C  0.88137856  0.36655660  0.86943946     1.02700
Fe199      Fe  0.66488417  0.07952713  0.13710529     1.65800
Fe200      Fe  0.66122390  0.16126906  0.10810112     1.73200
Fe201      Fe  0.71976581  0.13197246  0.12590298     1.54400
O202        O  0.71839913  0.12524401  0.15714126    -0.82000
O203        O  0.68983106  0.17188207  0.08670889    -0.80300
O204        O  0.68329792  0.09029744  0.16531325    -0.84500
O205        O  0.69313436  0.04135820  0.12863514    -0.79300
O206        O  0.71547854  0.19163860  0.12983833    -0.81100
O207        O  0.64797330  0.11748676  0.08971102    -0.83900
C208        C  0.71682084  0.04220589  0.12371664     0.96900
C209        C  0.70408151  0.10827644  0.17026657     1.04300
O210        O  0.68195382  0.12416220  0.12385972    -1.12800
O211        O  0.62820082  0.15799632  0.12599388    -0.75300
O212        O  0.63284729  0.10959436  0.14775902    -0.78800
O213        O  0.72943313  0.07368539  0.12208400    -0.79400
C214        C  0.61972454  0.13726917  0.14051657     0.95800
O215        O  0.64637622  0.06461979  0.10956039    -0.77400
O216        O  0.67394105  0.20736820  0.12534514    -0.82600
C217        C  0.71268596  0.16089559  0.08261916     0.98400
C218        C  0.69709241  0.21634527  0.12991331     1.04400
O219        O  0.72552862  0.13988869  0.09479683    -0.78200
C220        C  0.64300155  0.08175631  0.09240857     1.02700
Fe221      Fe  0.16329031  0.42871041  0.87671336     1.65800
Fe222      Fe  0.15393543  0.34898344  0.90656894     1.73200
Fe223      Fe  0.21452534  0.37151868  0.88824460     1.54400
O224        O  0.21520257  0.38535886  0.85737039    -0.82000
O225        O  0.17902367  0.34465369  0.93068337    -0.80300
O226        O  0.17708098  0.41034529  0.84821709    -0.84500
O227        O  0.19602410  0.46163374  0.88056027    -0.79300
O228        O  0.20747464  0.31474086  0.88042997    -0.81100
O229        O  0.13783625  0.39638055  0.92168632    -0.83900
C230        C  0.21774569  0.45903328  0.88928066     0.96900
C231        C  0.19963255  0.39747409  0.84375970     1.04300
O232        O  0.17721928  0.38264691  0.89042054    -1.12800
O233        O  0.12463450  0.34773526  0.88508732    -0.75300
O234        O  0.12741124  0.40508426  0.87014348    -0.78800
O235        O  0.22623543  0.42708282  0.89598738    -0.79400
C236        C  0.11539520  0.37371176  0.87357953     0.95800
O237        O  0.15033944  0.44967374  0.90480529    -0.77400
O238        O  0.16899373  0.29836886  0.89381034    -0.82600
C239        C  0.20332385  0.34607729  0.93301058     0.98400
C240        C  0.19006811  0.28981079  0.88455432     1.04400
O241        O  0.21871062  0.35578982  0.91865897    -0.78200
C242        C  0.14091750  0.43300962  0.92061095     1.02700
Fe243      Fe  0.33861499  0.08377785  0.13085800     1.65800
Fe244      Fe  0.34443483  0.16695851  0.10361008     1.73200
Fe245      Fe  0.28471564  0.13876102  0.12157777     1.54400
O246        O  0.27435494  0.08204469  0.11403040    -0.82000
O247        O  0.32795187  0.21462953  0.11710863    -0.80300
O248        O  0.30775314  0.04812685  0.12534132    -0.84500
O249        O  0.32365994  0.09731135  0.15976939    -0.79300
O250        O  0.27978852  0.15422877  0.09122783    -0.81100
O251        O  0.37297704  0.16946787  0.12545404    -0.83900
C252        C  0.30152803  0.11075798  0.16510546     0.96900
C253        C  0.28518823  0.04996460  0.11805674     1.04300
O254        O  0.32247745  0.13005012  0.11877027    -1.12800
O255        O  0.36313480  0.12351433  0.08770819    -0.75300
O256        O  0.35303885  0.06705914  0.10234699    -0.78800
O257        O  0.28556532  0.12477368  0.15231628    -0.79400
C258        C  0.36224560  0.08672610  0.08748388     0.95800
O259        O  0.37346231  0.11024076  0.13836529    -0.77400
O260        O  0.31903073  0.17039074  0.07960664    -0.82600
C261        C  0.30653413  0.22245652  0.12575116     0.98400
C262        C  0.29482020  0.16649036  0.07716684     1.04400
O263        O  0.28928349  0.19688790  0.12928526    -0.78200
C264        C  0.38377723  0.14328532  0.13587882     1.02700
Fe265      Fe  0.33311941  0.92578656  0.87760687     1.65800
Fe266      Fe  0.33642022  0.84154757  0.90481810     1.73200
Fe267      Fe  0.27797681  0.87261804  0.88685999     1.54400
O268        O  0.26873647  0.92974307  0.89411363    -0.82000
O269        O  0.32125437  0.79527306  0.88921300    -0.80300
O270        O  0.30326471  0.96293537  0.88395776    -0.84500
O271        O  0.31733201  0.91453727  0.84860426    -0.79300
O272        O  0.27162321  0.85849558  0.91722375    -0.81100
O273        O  0.36727777  0.84118519  0.88485365    -0.83900
C274        C  0.29516684  0.90123621  0.84334351     0.96900
C275        C  0.28020430  0.96160871  0.89052101     1.04300
O276        O  0.31583071  0.87986738  0.88963954    -1.12800
O277        O  0.35316923  0.88410195  0.92223538    -0.75300
O278        O  0.34895305  0.94075618  0.90603644    -0.78800
O279        O  0.27943416  0.88612979  0.85612669    -0.79400
C280        C  0.35568001  0.92070498  0.92154607     0.95800
O281        O  0.36707292  0.89794652  0.86913858    -0.77400
O282        O  0.30929181  0.83497940  0.92761011    -0.82600
C283        C  0.29935904  0.78818183  0.88135474     0.98400
C284        C  0.28554209  0.84222815  0.93059736     1.04400
O285        O  0.28190909  0.81403822  0.87940693    -0.78200
C286        C  0.37790068  0.86606207  0.87336375     1.02700
Fe287      Fe  0.16438485  0.58126371  0.13504253     1.65800
Fe288      Fe  0.15714919  0.66595642  0.10882354     1.73200
Fe289      Fe  0.21688589  0.63917359  0.12522713     1.54400
O290        O  0.21597937  0.63158913  0.15642296    -0.82000
O291        O  0.18454155  0.67802482  0.08666373    -0.80300
O292        O  0.18433555  0.58866562  0.16275335    -0.84500
O293        O  0.19290899  0.54634333  0.12366355    -0.79300
O294        O  0.21143700  0.69855942  0.12905266    -0.81100
O295        O  0.14368505  0.62311495  0.08979336    -0.83900
C296        C  0.21694374  0.54958622  0.12044304     0.96900
C297        C  0.20364805  0.60918091  0.16850867     1.04300
O298        O  0.17943411  0.62882458  0.12325802    -1.12800
O299        O  0.12602926  0.65997943  0.12852834    -0.75300
O300        O  0.13280395  0.60865468  0.14812423    -0.78800
O301        O  0.22864503  0.58187690  0.12136845    -0.79400
C302        C  0.11923733  0.63749578  0.14290313     0.95800
O303        O  0.14443591  0.56846912  0.10800425    -0.77400
O304        O  0.16953500  0.71240309  0.12601863    -0.82600
C305        C  0.20735280  0.66730995  0.08208325     0.98400
C306        C  0.19273444  0.72262258  0.12943500     1.04400
O307        O  0.22114532  0.64730670  0.09410687    -0.78200
C308        C  0.14005344  0.58685649  0.09143897     1.02700
Fe309      Fe  0.66189354  0.92640506  0.87827745     1.65800
Fe310      Fe  0.65552081  0.84603950  0.90842479     1.73200
Fe311      Fe  0.71507264  0.87097965  0.88895567     1.54400
O312        O  0.71374870  0.87826480  0.85748840    -0.82000
O313        O  0.68335191  0.83757893  0.93020818    -0.80300
O314        O  0.67808268  0.91204261  0.84979571    -0.84500
O315        O  0.69226682  0.96256946  0.88380792    -0.79300
O316        O  0.70915851  0.81177477  0.88532212    -0.81100
O317        O  0.64208621  0.89209397  0.92571281    -0.83900
C318        C  0.71578726  0.96054410  0.88877737     0.96900
C319        C  0.69912402  0.89498132  0.84457548     1.04300
O320        O  0.67747662  0.88097673  0.89169285    -1.12800
O321        O  0.62324448  0.84791039  0.88991304    -0.75300
O322        O  0.62789579  0.89928110  0.87003436    -0.78800
O323        O  0.72677363  0.92841628  0.89238999    -0.79400
C324        C  0.61478454  0.87065352  0.87634615     0.95800
O325        O  0.64620505  0.94502235  0.90615030    -0.77400
O326        O  0.66811119  0.79697670  0.89309412    -0.82600
C327        C  0.70685819  0.84593300  0.93340459     0.98400
C328        C  0.69076285  0.78733408  0.88717578     1.04400
O329        O  0.72082990  0.86291956  0.92008506    -0.78200
C330        C  0.64061099  0.92857495  0.92311178     1.02700
Fe331      Fe  0.84233217  0.58037223  0.13151463     1.65800
Fe332      Fe  0.84433260  0.66619679  0.10564672     1.73200
Fe333      Fe  0.78678037  0.63332826  0.12448792     1.54400
O334        O  0.77677395  0.57579701  0.11912528    -0.82000
O335        O  0.83174169  0.71019010  0.12459531    -0.80300
O336        O  0.81299971  0.54290794  0.12436947    -0.84500
O337        O  0.82646811  0.58910220  0.16095747    -0.79300
O338        O  0.77955056  0.64551824  0.09401507    -0.81100
O339        O  0.87741716  0.66266992  0.12275821    -0.83900
C340        C  0.80549227  0.60519894  0.16723423     0.96900
C341        C  0.78913128  0.54413817  0.12029468     1.04300
O342        O  0.82449892  0.62650229  0.12066053    -1.12800
O343        O  0.85764634  0.62472997  0.08554077    -0.75300
O344        O  0.85813848  0.56822760  0.10242489    -0.78800
O345        O  0.78996232  0.62228589  0.15522533    -0.79400
C346        C  0.86161738  0.58832839  0.08617202     0.95800
O347        O  0.87565431  0.60870954  0.14082807    -0.77400
O348        O  0.81505897  0.67813217  0.08550030    -0.82600
C349        C  0.80881797  0.71740803  0.13068864     0.98400
C350        C  0.79198981  0.66774950  0.08199696     1.04400
O351        O  0.79089242  0.69203672  0.13053429    -0.78200
C352        C  0.88719769  0.63944614  0.13544015     1.02700
C353        C  0.77935328  0.68416809  0.06364733    -0.03500
C354        C  0.75231795  0.68324478  0.06133862    -0.06100
C355        C  0.74061105  0.70310903  0.04516725    -0.21200
C356        C  0.75562951  0.72454969  0.03116521     0.24500
C357        C  0.78270719  0.72426167  0.03306205    -0.18700
C358        C  0.79437378  0.70441298  0.04911499    -0.08700
C359        C  0.74259964  0.74586706  0.01441692    -0.19000
C360        C  0.75268211  0.77778346  0.00541298    -0.23800
C361        C  0.74015220  0.79823964  0.98807691     0.26600
C362        C  0.75540771  0.82102213  0.97483133    -0.20600
C363        C  0.74458488  0.83814630  0.95743040    -0.10200
C364        C  0.71816574  0.83312187  0.95309741    -0.10700
C365        C  0.70267777  0.81231257  0.96709659    -0.03700
C366        C  0.71345879  0.79519998  0.98435332    -0.18800
H367        H  0.74019069  0.66816502  0.07232825     0.10300
H368        H  0.71969492  0.70248848  0.04386128     0.10400
H369        H  0.79501308  0.73906298  0.02212906     0.10000
H370        H  0.81528586  0.70545199  0.05029329     0.11100
H371        H  0.72399986  0.73462794  0.00954712     0.11200
H372        H  0.77128521  0.78886643  0.01043347     0.13100
H373        H  0.77597232  0.82444444  0.97756200     0.09700
H374        H  0.75703638  0.85419826  0.94706496     0.11700
H375        H  0.68215357  0.80822281  0.96446795     0.08400
H376        H  0.70072761  0.77953083  0.99460519     0.11100
C377        C  0.09357752  0.64370747  0.15276298    -0.03500
C378        C  0.08171003  0.61408177  0.16423894    -0.06100
C379        C  0.05530716  0.61613788  0.16922221    -0.21200
C380        C  0.04025495  0.64780011  0.16290852     0.24500
C381        C  0.05289718  0.67937597  0.15348613    -0.18700
C382        C  0.07918808  0.67718051  0.14836151    -0.08700
C383        C  0.01144391  0.64527900  0.16498543    -0.19000
C384        C  0.99503837  0.66702856  0.15383057    -0.23800
C385        C  0.96650540  0.66083039  0.15249530     0.26600
C386        C  0.95164015  0.68978812  0.14315852    -0.20600
C387        C  0.92557276  0.68353882  0.13862827    -0.10200
C388        C  0.91358168  0.64798305  0.14327750    -0.10700
C389        C  0.92803313  0.61960398  0.15357816    -0.03700
C390        C  0.95424710  0.62584967  0.15809374    -0.18800
H391        H  0.09232378  0.58811248  0.16815478     0.10300
H392        H  0.04630280  0.59178683  0.17694105     0.10400
H393        H  0.04259445  0.70541277  0.14937880     0.10000
H394        H  0.08792211  0.70101486  0.14003141     0.11100
H395        H  0.00373000  0.62261414  0.17475053     0.11200
H396        H  0.00277287  0.68957300  0.14403148     0.13100
H397        H  0.96048615  0.71700062  0.13865691     0.09700
H398        H  0.91507134  0.70616136  0.13078188     0.11700
H399        H  0.91944573  0.59181017  0.15727763     0.08400
H400        H  0.96495881  0.60243501  0.16498249     0.11100
C401        C  0.40485965  0.85871843  0.86623753    -0.03500
C402        C  0.41651046  0.82259035  0.86982048    -0.06100
C403        C  0.44321547  0.81773305  0.86732584    -0.21200
C404        C  0.45911675  0.84875069  0.86121902     0.24500
C405        C  0.44725297  0.88442813  0.85648789    -0.18700
C406        C  0.42042353  0.88924188  0.85889584    -0.02300
C407        C  0.48782041  0.84287526  0.86169093    -0.19000
C408        C  0.50568087  0.86957480  0.85617303    -0.23800
C409        C  0.53417119  0.86507311  0.85946244     0.26600
C410        C  0.55113357  0.89123164  0.84979217    -0.20600
C411        C  0.57761021  0.89141696  0.85427900    -0.10200
C412        C  0.58788589  0.86548619  0.86868490    -0.10700
C413        C  0.57116811  0.83802985  0.87765997    -0.03700
C414        C  0.54465060  0.83790258  0.87321260    -0.18800
H415        H  0.40516886  0.79841248  0.87549713     0.10300
H416        H  0.45162684  0.78987168  0.87101736     0.10400
H417        H  0.45847588  0.90933991  0.85175856     0.10000
H418        H  0.41213074  0.91754808  0.85614113     0.11100
H419        H  0.49436719  0.81516314  0.86744911     0.11200
H420        H  0.49947137  0.89648351  0.84925960     0.13100
H421        H  0.54373250  0.91254951  0.83918161     0.09700
H422        H  0.58982860  0.91306077  0.84707929     0.11700
H423        H  0.57830847  0.81783284  0.88895182     0.08400
H424        H  0.53247298  0.81767491  0.88143091     0.11100
C425        C  0.21826717  0.68048802  0.06232960    -0.03500
C426        C  0.24517699  0.68193249  0.05913032    -0.06100
C427        C  0.25539124  0.69950437  0.04158014    -0.21200
C428        C  0.23892832  0.71617685  0.02705212     0.24500
C429        C  0.21199227  0.71278743  0.02967595    -0.18700
C430        C  0.20178420  0.69522349  0.04717608    -0.08700
C431        C  0.25050521  0.73735214  0.00955719    -0.19000
C432        C  0.23897114  0.76803237  0.00071208    -0.23800
C433        C  0.25125813  0.79033303  0.98387485     0.26600
C434        C  0.23554134  0.80917556  0.96956056    -0.20600
C435        C  0.24661617  0.82805860  0.95268872    -0.10200
C436        C  0.27365932  0.82869568  0.94999793    -0.10700
C437        C  0.28935645  0.81209083  0.96513480    -0.03700
C438        C  0.27830697  0.79320755  0.98188923    -0.18800
H439        H  0.25834705  0.67092953  0.07055559     0.10300
H440        H  0.27622310  0.70141144  0.03972660     0.10400
H441        H  0.19875877  0.72393615  0.01835561     0.10000
H442        H  0.18093257  0.69396575  0.04905946     0.11100
H443        H  0.26965036  0.72834340  0.00452402     0.11200
H444        H  0.21978217  0.77695263  0.00569852     0.13100
H445        H  0.21463876  0.80798934  0.97101209     0.09700
H446        H  0.23399076  0.84069195  0.94135416     0.11700
H447        H  0.31026757  0.81259260  0.96374096     0.08400
H448        H  0.29106744  0.78069084  0.99315010     0.11100
C449        C  0.36564747  0.93983711  0.94033381    -0.03500
C450        C  0.37622654  0.91690851  0.95599372    -0.06100
C451        C  0.38122905  0.93256148  0.97525628    -0.21200
C452        C  0.37605871  0.97162903  0.97946314     0.24500
C453        C  0.36692592  0.99534456  0.96348084    -0.18700
C454        C  0.36184882  0.97956381  0.94407979    -0.08700
C455        C  0.37796601  0.98499745  0.00111434    -0.19000
C456        C  0.37900865  0.02243849  0.00685641    -0.23800
C457        C  0.37796348  0.03555384  0.02860155     0.26600
C458        C  0.38646159  0.07313492  0.03320527    -0.20600
C459        C  0.38299454  0.08863866  0.05278300    -0.10200
C460        C  0.37067872  0.06705298  0.06832164    -0.10700
C461        C  0.36316676  0.02873520  0.06403818    -0.03700
C462        C  0.36668469  0.01314214  0.04436958    -0.18800
H463        H  0.37963509  0.88623926  0.95367692     0.10300
H464        H  0.38832058  0.91361378  0.98717503     0.10400
H465        H  0.36228168  0.02549947  0.96610599     0.10000
H466        H  0.35358692  0.99796142  0.93241829     0.11100
H467        H  0.37846282  0.96270745  0.01279304     0.11200
H468        H  0.38078874  0.04470676  0.99523709     0.13100
H469        H  0.39512277  0.09109157  0.02141134     0.09700
H470        H  0.38899265  0.11828872  0.05546947     0.11700
H471        H  0.35324271  0.01154920  0.07552856     0.08400
H472        H  0.35926108  0.98438532  0.04139724     0.11100
C473        C  0.19870837  0.76449440  0.13208028    -0.03500
C474        C  0.17903596  0.79271998  0.13127215    -0.06100
C475        C  0.18527644  0.83223353  0.12985600    -0.21200
C476        C  0.21124959  0.84425286  0.12889628     0.24500
C477        C  0.23083061  0.81621030  0.13096579    -0.18700
C478        C  0.22464339  0.77691716  0.13250624    -0.08700
C479        C  0.21766963  0.88603386  0.12596297    -0.19000
C480        C  0.23928960  0.89723620  0.11586165    -0.23800
C481        C  0.24914834  0.93773513  0.11455118     0.26600
C482        C  0.27562348  0.94268449  0.11040137    -0.20600
C483        C  0.28679736  0.97942968  0.11057270    -0.10200
C484        C  0.27176353  0.01252311  0.11461944    -0.10700
C485        C  0.24490726  0.00812623  0.11757608    -0.03700
C486        C  0.23365684  0.97092672  0.11767003    -0.18800
H487        H  0.15884045  0.78422682  0.13093283     0.10300
H488        H  0.16982233  0.85329730  0.12870626     0.10400
H489        H  0.25105917  0.82447258  0.13124508     0.10000
H490        H  0.24032957  0.75615473  0.13322253     0.11100
H491        H  0.20450834  0.90744738  0.13230922     0.11200
H492        H  0.25158657  0.87503598  0.10912977     0.13100
H493        H  0.28800211  0.91780732  0.10774805     0.09700
H494        H  0.30751081  0.98186124  0.10806609     0.11700
H495        H  0.23287817  0.03315942  0.12074575     0.08400
H496        H  0.21303990  0.96832690  0.12041359     0.11100
C497        C  0.30104213  0.26375091  0.13029636    -0.03500
C498        C  0.32092595  0.29158985  0.12858971    -0.06100
C499        C  0.31517427  0.33116919  0.12875250    -0.21200
C500        C  0.28944396  0.34369889  0.13028880     0.24500
C501        C  0.26971109  0.31607370  0.13334259    -0.18700
C502        C  0.27546672  0.27647237  0.13338925    -0.08700
C503        C  0.28350965  0.38557523  0.12827360    -0.19000
C504        C  0.26232563  0.39770476  0.11824453    -0.23800
C505        C  0.25367663  0.43869563  0.11641582     0.26600
C506        C  0.22980339  0.44542701  0.10694139    -0.20600
C507        C  0.21873069  0.48223007  0.10706557    -0.10200
C508        C  0.23142313  0.51345046  0.11646412    -0.10700
C509        C  0.25618728  0.50765957  0.12464211    -0.03700
C510        C  0.26723382  0.47051753  0.12473107    -0.18800
H511        H  0.34086826  0.28279102  0.12629144     0.10300
H512        H  0.33071189  0.35195714  0.12670181     0.10400
H513        H  0.24974670  0.32503130  0.13529120     0.10000
H514        H  0.25972243  0.25585589  0.13479069     0.11100
H515        H  0.29733089  0.40608482  0.13439666     0.11200
H516        H  0.24996399  0.37589666  0.11130430     0.13100
H517        H  0.21902155  0.42170664  0.10020402     0.09700
H518        H  0.19966509  0.48596251  0.10054283     0.11700
H519        H  0.26626829  0.53127604  0.13210042     0.08400
H520        H  0.28581063  0.46695583  0.13196149     0.11100
C521        C  0.19592742  0.24872783  0.87968382    -0.03500
C522        C  0.21748713  0.23954536  0.86731472    -0.06100
C523        C  0.22668992  0.20157214  0.86618548    -0.21200
C524        C  0.21478643  0.17190060  0.87749917     0.24500
C525        C  0.19201907  0.18042847  0.88863094    -0.18700
C526        C  0.18268462  0.21850836  0.88969545    -0.08700
C527        C  0.22748177  0.13322634  0.87779897    -0.19000
C528        C  0.22373360  0.10647416  0.89254644    -0.23800
C529        C  0.23880701  0.06987758  0.89318906     0.26600
C530        C  0.22707433  0.03580945  0.90046353    -0.20600
C531        C  0.24058799  0.00056649  0.90022654    -0.10200
C532        C  0.26631830  0.99902523  0.89306784    -0.10700
C533        C  0.27845495  0.03374409  0.88691366    -0.03700
C534        C  0.26488200  0.06868281  0.88693674    -0.18800
H535        H  0.22801941  0.26201515  0.85923835     0.10300
H536        H  0.24399948  0.19574691  0.85719103     0.10400
H537        H  0.18164912  0.15811779  0.89692446     0.10000
H538        H  0.16595301  0.22456393  0.89925244     0.11100
H539        H  0.24175438  0.12744370  0.86585676     0.11200
H540        H  0.20929895  0.11102450  0.90446133     0.13100
H541        H  0.20711254  0.03624636  0.90573678     0.09700
H542        H  0.23075642  0.97451036  0.90521612     0.11700
H543        H  0.29835646  0.03389002  0.88155077     0.08400
H544        H  0.27485675  0.09471478  0.88204328     0.11100
C545        C  0.23343463  0.49488632  0.89070861    -0.03500
C546        C  0.26056122  0.49399816  0.89262048    -0.06100
C547        C  0.27509821  0.52828667  0.89060101    -0.21200
C548        C  0.26271336  0.56367415  0.88645382     0.24500
C549        C  0.23553220  0.56466152  0.88597478    -0.18700
C550        C  0.22114202  0.53079008  0.88799721    -0.08700
C551        C  0.27790948  0.59986783  0.88343372    -0.19000
C552        C  0.26945802  0.62826496  0.87094581    -0.23800
C553        C  0.27941907  0.66867496  0.87099710     0.26600
C554        C  0.26266971  0.69840434  0.86475832    -0.20600
C555        C  0.26953923  0.73735681  0.86713363    -0.10200
C556        C  0.29359064  0.74744317  0.87552693    -0.10700
C557        C  0.31112755  0.71759167  0.88039072    -0.03700
C558        C  0.30412428  0.67861564  0.87820074    -0.18800
H559        H  0.27054982  0.46675195  0.89482012     0.10300
H560        H  0.29601929  0.52699318  0.89159251     0.10400
H561        H  0.22523208  0.59169046  0.88397736     0.10000
H562        H  0.20024637  0.53267280  0.88695675     0.11100
H563        H  0.29525940  0.60373248  0.89247511     0.11200
H564        H  0.25240912  0.62284757  0.86170512     0.13100
H565        H  0.24358008  0.69150848  0.85895647     0.09700
H566        H  0.25562525  0.75946690  0.86313907     0.11700
H567        H  0.32993654  0.72424916  0.88672902     0.08400
H568        H  0.31787173  0.65657015  0.88255799     0.11100
C569        C  0.13215314  0.56527813  0.07269125    -0.03500
C570        C  0.13320709  0.52457874  0.07189394    -0.06100
C571        C  0.12997508  0.50487705  0.05327999    -0.21200
C572        C  0.12586237  0.52529965  0.03498371     0.24500
C573        C  0.12343060  0.56587748  0.03595890    -0.18700
C574        C  0.12659869  0.58554254  0.05453833    -0.08700
C575        C  0.12439157  0.50333868  0.01527767    -0.19000
C576        C  0.13019113  0.51899584  0.99682689    -0.23800
C577        C  0.13070802  0.49707400  0.97702074     0.26600
C578        C  0.14255059  0.51438634  0.95986070    -0.20600
C579        C  0.14463548  0.49448055  0.94120055    -0.10200
C580        C  0.13490879  0.45658568  0.93918086    -0.10700
C581        C  0.12219643  0.43977806  0.95610941    -0.03700
C582        C  0.11997912  0.45976000  0.97473673    -0.18800
H583        H  0.13756338  0.50798508  0.08548697     0.10300
H584        H  0.13161095  0.47358836  0.05306249     0.10400
H585        H  0.11926908  0.58266511  0.02242481     0.10000
H586        H  0.12543992  0.61689876  0.05452469     0.11100
H587        H  0.12015787  0.47264636  0.01639337     0.11200
H588        H  0.13638502  0.54903942  0.99619655     0.13100
H589        H  0.15084408  0.54315372  0.96102148     0.09700
H590        H  0.15479321  0.50825553  0.92860112     0.11700
H591        H  0.11442142  0.41067570  0.95512821     0.08400
H592        H  0.10999931  0.44554759  0.98721523     0.11100
C593        C  0.21392752  0.33327149  0.95290092    -0.03500
C594        C  0.19736012  0.32785663  0.96986298    -0.06100
C595        C  0.20619707  0.30915082  0.98743052    -0.21200
C596        C  0.23159195  0.29491083  0.98830096     0.24500
C597        C  0.24871055  0.30276257  0.97195488    -0.18700
C598        C  0.23994673  0.32178712  0.95443969    -0.08700
C599        C  0.23939480  0.27141812  0.00624538    -0.19000
C600        C  0.25738802  0.24320939  0.00506282    -0.23800
C601        C  0.26546003  0.21959952  0.02286804     0.26600
C602        C  0.29079261  0.20499972  0.02322572    -0.20600
C603        C  0.29994674  0.18557159  0.04044636    -0.10200
C604        C  0.28374814  0.17970369  0.05755708    -0.10700
C605        C  0.25777958  0.19172509  0.05658481    -0.03700
C606        C  0.24871278  0.21162113  0.03942917    -0.18800
H607        H  0.17727099  0.33677473  0.96927754     0.10300
H608        H  0.19279318  0.30419535  0.00000253     0.10400
H609        H  0.26874781  0.29373318  0.97248056     0.10000
H610        H  0.25325418  0.32580916  0.94173087     0.11100
H611        H  0.22927326  0.27668795  0.02061391     0.11200
H612        H  0.26739795  0.23791706  0.99065014     0.13100
H613        H  0.30391535  0.21013967  0.01049208     0.09700
H614        H  0.32000358  0.17638799  0.04066021     0.11700
H615        H  0.24481358  0.18754800  0.06950058     0.08400
H616        H  0.22875517  0.22111061  0.03932391     0.11100
C617        C  0.70334087  0.25770412  0.13384921    -0.03500
C618        C  0.68386944  0.28623043  0.13319361    -0.06100
C619        C  0.69034532  0.32566739  0.13310106    -0.21200
C620        C  0.71636575  0.33735269  0.13333650     0.24500
C621        C  0.73573104  0.30897307  0.13535993    -0.18700
C622        C  0.72928790  0.26962502  0.13563065    -0.08700
C623        C  0.72300066  0.37912085  0.13121171    -0.19000
C624        C  0.74424340  0.39069916  0.12076146    -0.23800
C625        C  0.75358501  0.43143791  0.11894183     0.26600
C626        C  0.77893389  0.43715922  0.11166074    -0.20600
C627        C  0.78988280  0.47408906  0.11117509    -0.10200
C628        C  0.77564494  0.50656023  0.11767565    -0.10700
C629        C  0.74973982  0.50143750  0.12390687    -0.03700
C630        C  0.73878253  0.46414894  0.12462204    -0.18800
H631        H  0.66368104  0.27812052  0.13191417     0.10300
H632        H  0.67506544  0.34702788  0.13191142     0.10400
H633        H  0.75593273  0.31710331  0.13641516     0.10000
H634        H  0.74478520  0.24854868  0.13634741     0.11100
H635        H  0.70984708  0.40014603  0.13792339     0.11200
H636        H  0.75626921  0.36860688  0.11358559     0.13100
H637        H  0.79074215  0.41270137  0.10698036     0.09700
H638        H  0.80985138  0.47711985  0.10620945     0.11700
H639        H  0.73837879  0.52596651  0.12911739     0.08400
H640        H  0.71899168  0.46123386  0.12991348     0.11100
C641        C  0.72976698  0.00433616  0.12073223    -0.03500
C642        C  0.71472261  0.97163438  0.11589389    -0.06100
C643        C  0.72538511  0.93458245  0.11651383    -0.21200
C644        C  0.75122795  0.92916417  0.12225980     0.24500
C645        C  0.76681431  0.96193309  0.12596322    -0.18700
C646        C  0.75615580  0.99929441  0.12510702    -0.08700
C647        C  0.76065698  0.88877763  0.12434825    -0.19000
C648        C  0.78056193  0.87789189  0.13625508    -0.23800
C649        C  0.78771196  0.83645887  0.13835370     0.26600
C650        C  0.81388164  0.82575867  0.13932457    -0.20600
C651        C  0.82099706  0.78662235  0.13819009    -0.10200
C652        C  0.80192930  0.75762460  0.13650683    -0.10700
C653        C  0.77569613  0.76838138  0.13759506    -0.03700
C654        C  0.76866338  0.80733533  0.13848047    -0.18800
H655        H  0.69437358  0.97459490  0.11225215     0.10300
H656        H  0.71306574  0.90991284  0.11327147     0.10400
H657        H  0.78707612  0.95887530  0.12976314     0.10000
H658        H  0.76818805  0.02399278  0.12884092     0.11100
H659        H  0.74974080  0.86657584  0.11633340     0.11200
H660        H  0.79224574  0.89936519  0.14408173     0.13100
H661        H  0.82886394  0.84776210  0.13971719     0.09700
H662        H  0.84136647  0.77923236  0.13764786     0.11700
H663        H  0.76047623  0.74684919  0.13656863     0.08400
H664        H  0.74826963  0.81464356  0.13864573     0.11100
C665        C  0.63429591  0.05947634  0.07419903    -0.03500
C666        C  0.63772936  0.01914832  0.07292277    -0.06100
C667        C  0.63377467  0.99960244  0.05435402    -0.21200
C668        C  0.62647647  0.01991062  0.03666340     0.24500
C669        C  0.62149922  0.05985117  0.03829077    -0.18700
C670        C  0.62542900  0.07934572  0.05679146    -0.08700
C671        C  0.62457641  0.99865249  0.01682215    -0.19000
C672        C  0.62806550  0.01568501  0.99838423    -0.23800
C673        C  0.62868324  0.99407036  0.97856260     0.26600
C674        C  0.64145872  0.01073362  0.96165373    -0.20600
C675        C  0.64398602  0.99039012  0.94316632    -0.10200
C676        C  0.63381187  0.95278561  0.94117783    -0.10700
C677        C  0.61996283  0.93682917  0.95775294    -0.03700
C678        C  0.61719746  0.95731647  0.97616487    -0.18800
H679        H  0.64465963  0.00298798  0.08597992     0.10300
H680        H  0.63741422  0.96871054  0.05361005     0.10400
H681        H  0.61483539  0.07630573  0.02527215     0.10000
H682        H  0.62223041  0.11034945  0.05728859     0.11100
H683        H  0.62236496  0.96741105  0.01764793     0.11200
H684        H  0.63269936  0.04638405  0.99778243     0.13100
H685        H  0.65030458  0.03912909  0.96295880     0.09700
H686        H  0.65501828  0.00332979  0.93077731     0.11700
H687        H  0.61171704  0.90800232  0.95663074     0.08400
H688        H  0.60632070  0.94401947  0.98847124     0.11100
C689        C  0.41018810  0.15069011  0.14404954    -0.03500
C690        C  0.42112480  0.18801014  0.14319165    -0.06100
C691        C  0.44752778  0.19369769  0.14701727    -0.21200
C692        C  0.46376082  0.16232987  0.15177624     0.24500
C693        C  0.45246499  0.12526804  0.15378663    -0.18700
C694        C  0.42600485  0.11964994  0.15010240    -0.08700
C695        C  0.49242672  0.16904723  0.15239189    -0.19000
C696        C  0.50991159  0.14273538  0.15888323    -0.23800
C697        C  0.53865808  0.14665235  0.15641986     0.26600
C698        C  0.55468575  0.11987106  0.16641552    -0.20600
C699        C  0.58136238  0.11848211  0.16236653    -0.10200
C700        C  0.59276632  0.14384442  0.14808492    -0.10700
C701        C  0.57701627  0.17216414  0.13895477    -0.03700
C702        C  0.55032054  0.17350875  0.14297213    -0.18800
H703        H  0.40952717  0.21265174  0.13866800     0.10300
H704        H  0.45551581  0.22259121  0.14540864     0.10400
H705        H  0.46399836  0.10000586  0.15712153     0.10000
H706        H  0.41830002  0.09046564  0.15080062     0.11100
H707        H  0.49924202  0.19674093  0.14666155     0.11200
H708        H  0.50308091  0.11623196  0.16598984     0.13100
H709        H  0.54636201  0.09879551  0.17684885     0.09700
H710        H  0.59279373  0.09624437  0.16967733     0.11700
H711        H  0.58506468  0.19212683  0.12781316     0.08400
H712        H  0.53893365  0.19433631  0.13463787     0.11100
C713        C  0.87025723  0.43509892  0.93952483    -0.03500
C714        C  0.87881361  0.41263650  0.95610359    -0.06100
C715        C  0.88292046  0.42946909  0.97530136    -0.21200
C716        C  0.87854711  0.46918085  0.97857364     0.24500
C717        C  0.87147616  0.49213282  0.96162233    -0.18700
C718        C  0.86745277  0.47525602  0.94236186    -0.08700
C719        C  0.88024789  0.48437811  0.00003935    -0.19000
C720        C  0.87564030  0.52146163  0.00551265    -0.23800
C721        C  0.87551357  0.53602692  0.02703109     0.26600
C722        C  0.87891267  0.57588760  0.03015855    -0.20600
C723        C  0.87601135  0.59218531  0.04959267    -0.10200
C724        C  0.86927223  0.56914579  0.06657710    -0.10700
C725        C  0.86693599  0.52883896  0.06371497    -0.03700
C726        C  0.86998994  0.51238279  0.04411882    -0.18800
H727        H  0.88136430  0.38162114  0.95448808     0.10300
H728        H  0.88863535  0.41099213  0.98786261     0.10400
H729        H  0.86812013  0.52289736  0.96303299     0.10000
H730        H  0.86085009  0.49342792  0.92995691     0.11100
H731        H  0.88511045  0.46371698  0.01190231     0.11200
H732        H  0.87190697  0.54291991  0.99385143     0.13100
H733        H  0.88317603  0.59481888  0.01735001     0.09700
H734        H  0.87809491  0.62327551  0.05112059     0.11700
H735        H  0.86148763  0.51028485  0.07639374     0.08400
H736        H  0.86672608  0.48161153  0.04230890     0.11100
C737        C  0.77212032  0.49829779  0.89697237    -0.03500
C738        C  0.78681804  0.53095237  0.90236081    -0.06100
C739        C  0.77587003  0.56787823  0.90205801    -0.21200
C740        C  0.75001662  0.57326317  0.89617712     0.24500
C741        C  0.73476804  0.54028024  0.89197718    -0.18700
C742        C  0.74574374  0.50309480  0.89248354    -0.08700
C743        C  0.74059688  0.61388960  0.89409122    -0.19000
C744        C  0.71767782  0.62464555  0.88611452    -0.23800
C745        C  0.71043104  0.66618572  0.88410135     0.26600
C746        C  0.68457710  0.67751426  0.88708418    -0.20600
C747        C  0.67778280  0.71685083  0.88708213    -0.10200
C748        C  0.69669877  0.74562864  0.88372558    -0.10700
C749        C  0.72228060  0.73393411  0.87941807    -0.03700
C750        C  0.72905789  0.69473962  0.87957780    -0.18800
H751        H  0.80717221  0.52810033  0.90603203     0.10300
H752        H  0.78802286  0.59252596  0.90565587     0.10400
H753        H  0.71463634  0.54282835  0.88779453     0.10000
H754        H  0.73400963  0.47838993  0.88819313     0.11100
H755        H  0.75371670  0.63650560  0.89919501     0.11200
H756        H  0.70345425  0.60314710  0.88170510     0.13100
H757        H  0.66980815  0.65599045  0.89029592     0.09700
H758        H  0.65790158  0.72474150  0.89044752     0.11700
H759        H  0.73736533  0.75514763  0.87663464     0.08400
H760        H  0.74899235  0.68690601  0.87641214     0.11100
C761        C  0.79579809  0.24905551  0.87148457    -0.03500
C762        C  0.77100967  0.24164778  0.86360970    -0.06100
C763        C  0.76187154  0.20365226  0.86188999    -0.21200
C764        C  0.77714266  0.17225242  0.86816941     0.24500
C765        C  0.80277686  0.17941712  0.87431784    -0.18700
C766        C  0.81200159  0.21745276  0.87592334    -0.08700
C767        C  0.76497479  0.13317117  0.86911158    -0.19000
C768        C  0.77338654  0.10404396  0.88112772    -0.23800
C769        C  0.75848413  0.06753083  0.88402629     0.26600
C770        C  0.77153343  0.03283608  0.88845159    -0.20600
C771        C  0.75778680  0.99798537  0.89083496    -0.10200
C772        C  0.73065480  0.99742497  0.88913553    -0.10700
C773        C  0.71761767  0.03265618  0.88575030    -0.03700
C774        C  0.73130678  0.06717938  0.88324632    -0.18800
H775        H  0.75813532  0.26525993  0.85977736     0.10300
H776        H  0.74222037  0.19895584  0.85670136     0.10400
H777        H  0.81557931  0.15596798  0.87845038     0.10000
H778        H  0.83132621  0.22209849  0.88178482     0.11100
H779        H  0.74715562  0.12925766  0.86060460     0.11200
H780        H  0.79136568  0.10691384  0.88947901     0.13100
H781        H  0.79246853  0.03253580  0.88953442     0.09700
H782        H  0.76841265  0.97143670  0.89343091     0.11700
H783        H  0.69671313  0.03356522  0.88460532     0.08400
H784        H  0.72046080  0.09359160  0.88082786     0.11100
C785        C  0.08905450  0.36850934  0.86473634    -0.03500
C786        C  0.07938336  0.39524103  0.85046136    -0.06100
C787        C  0.05327391  0.39450776  0.84475406    -0.21200
C788        C  0.03612440  0.36696804  0.85303601     0.24500
C789        C  0.04610476  0.33883607  0.86646840    -0.18700
C790        C  0.07225715  0.33954148  0.87215795    -0.08700
C791        C  0.00771269  0.37154626  0.84935298    -0.19000
C792        C  0.99021583  0.34283594  0.85205546    -0.23800
C793        C  0.96143620  0.34841406  0.85276425     0.26600
C794        C  0.94628141  0.31806717  0.86069674    -0.20600
C795        C  0.91986871  0.32316578  0.86469353    -0.10200
C796        C  0.90768695  0.35881169  0.86079040    -0.10700
C797        C  0.92229314  0.38829317  0.85129762    -0.03700
C798        C  0.94888764  0.38321268  0.84731586    -0.18800
H799        H  0.09174649  0.41782778  0.84431016     0.10300
H800        H  0.04622460  0.41650851  0.83439752     0.10400
H801        H  0.03358632  0.31759841  0.87361870     0.10000
H802        H  0.07895156  0.31863276  0.88326926     0.11100
H803        H  0.00119437  0.40031369  0.84530606     0.11200
H804        H  0.99725011  0.31397174  0.85543807     0.13100
H805        H  0.95516085  0.29078856  0.86482083     0.09700
H806        H  0.90927061  0.29961675  0.87182496     0.11700
H807        H  0.91352696  0.41605317  0.84795264     0.08400
H808        H  0.95946590  0.40707890  0.84059738     0.11100
C809        C  0.78056999  0.32217171  0.94876872    -0.03500
C810        C  0.75454523  0.32777717  0.95450756    -0.06100
C811        C  0.74441086  0.30966485  0.97204894    -0.21200
C812        C  0.75995983  0.28543942  0.98416924     0.24500
C813        C  0.78630916  0.28152176  0.97891204    -0.18700
C814        C  0.79636915  0.29948678  0.96147057    -0.08700
C815        C  0.74793274  0.26462847  0.00190402    -0.19000
C816        C  0.75939532  0.23523867  0.01210613    -0.23800
C817        C  0.74698357  0.21419648  0.02946212     0.26600
C818        C  0.76273355  0.19640334  0.04418033    -0.20600
C819        C  0.75173327  0.17724110  0.06103033    -0.10200
C820        C  0.72469105  0.17531645  0.06339799    -0.10700
C821        C  0.70898175  0.19149200  0.04812285    -0.03700
C822        C  0.71995559  0.21060966  0.03134133    -0.18800
H823        H  0.74186223  0.34524770  0.94518045     0.10300
H824        H  0.72413010  0.31380504  0.97586094     0.10400
H825        H  0.79945708  0.26459744  0.98802012     0.10000
H826        H  0.81662067  0.29485936  0.95774439     0.11100
H827        H  0.72861812  0.27368989  0.00648360     0.11200
H828        H  0.77881851  0.22615015  0.00805922     0.13100
H829        H  0.78364213  0.19827056  0.04293081     0.09700
H830        H  0.76436104  0.16529739  0.07256941     0.11700
H831        H  0.68806334  0.19008181  0.04935056     0.08400
H832        H  0.70717825  0.22244553  0.01990150     0.11100
C833        C  0.71724873  0.61211330  0.32023166    -0.03500
C834        C  0.70306660  0.59128729  0.30555676    -0.06100
C835        C  0.71289032  0.58622674  0.28560587    -0.21200
C836        C  0.73727272  0.60122930  0.27992599     0.24500
C837        C  0.75138525  0.62214057  0.29455838    -0.18700
C838        C  0.74151798  0.62751501  0.31436304    -0.08700
C839        C  0.74652074  0.59729928  0.25830387    -0.19000
C840        C  0.77174153  0.59880814  0.25249053    -0.23800
C841        C  0.78027152  0.59952079  0.23059416     0.26600
C842        C  0.80494776  0.58560920  0.22488404    -0.20600
C843        C  0.81349883  0.58735910  0.20439299    -0.10200
C844        C  0.79768408  0.60375537  0.18926815    -0.10700
C845        C  0.77324485  0.61834946  0.19521985    -0.03700
C846        C  0.76468547  0.61623640  0.21549053    -0.18800
H847        H  0.68442949  0.57881333  0.30948564     0.10300
H848        H  0.70143083  0.57037344  0.27456716     0.10400
H849        H  0.76983469  0.63522333  0.29066411     0.10000
H850        H  0.75311752  0.64372924  0.32514574     0.11100
H851        H  0.73182518  0.59281218  0.24673327     0.11200
H852        H  0.78670981  0.59936770  0.26406544     0.13100
H853        H  0.81754009  0.57310430  0.23627985     0.09700
H854        H  0.83242023  0.57593744  0.20041682     0.11700
H855        H  0.76045429  0.63144429  0.18415501     0.08400
H856        H  0.74599555  0.62857467  0.21933072     0.11100
C857        C  0.79040508  0.90081324  0.69165836    -0.03500
C858        C  0.80727031  0.90663747  0.70814771    -0.06100
C859        C  0.79778338  0.90626047  0.72839207    -0.21200
C860        C  0.77122166  0.90064584  0.73263404     0.24500
C861        C  0.75446392  0.89439106  0.71610558    -0.18700
C862        C  0.76390728  0.89451091  0.69600428    -0.08700
C863        C  0.76193999  0.89966101  0.75440406    -0.19000
C864        C  0.73690799  0.90451244  0.76029037    -0.23800
C865        C  0.72754677  0.90170525  0.78198641     0.26600
C866        C  0.70373347  0.91873602  0.78756086    -0.20600
C867        C  0.69411559  0.91602803  0.80768540    -0.10200
C868        C  0.70795857  0.89577655  0.82273419    -0.10700
C869        C  0.73158205  0.87822250  0.81701208    -0.03700
C870        C  0.74119401  0.88103879  0.79697393    -0.18800
H871        H  0.82775293  0.91130917  0.70542530     0.10300
H872        H  0.81125877  0.91060029  0.74081383     0.10400
H873        H  0.73408139  0.88865036  0.71852333     0.10000
H874        H  0.75019760  0.88977928  0.68378263     0.11100
H875        H  0.77660094  0.89572860  0.76601401     0.11200
H876        H  0.72256373  0.91194950  0.74891759     0.13100
H877        H  0.69262189  0.93454570  0.77633378     0.09700
H878        H  0.67598120  0.93016334  0.81149116     0.11700
H879        H  0.74287615  0.86237755  0.82809324     0.08400
H880        H  0.75915478  0.86638702  0.79329682     0.11100
C881        C  0.77733111  0.84178570  0.56117810    -0.03500
C882        C  0.75028161  0.83947051  0.55915022    -0.06100
C883        C  0.73943750  0.82149054  0.54201235    -0.21200
C884        C  0.75541822  0.80519440  0.52679923     0.24500
C885        C  0.78237378  0.80982873  0.52820036    -0.18700
C886        C  0.79317971  0.82785054  0.54519527    -0.08700
C887        C  0.74353118  0.78343151  0.50970793    -0.19000
C888        C  0.75582728  0.75417804  0.49995013    -0.23800
C889        C  0.74450410  0.73233195  0.48262529     0.26600
C890        C  0.76118326  0.71348093  0.46874575    -0.20600
C891        C  0.75132745  0.69467047  0.45148562    -0.10200
C892        C  0.72454172  0.69418129  0.44791252    -0.10700
C893        C  0.70780621  0.71108153  0.46249635    -0.03700
C894        C  0.71763420  0.72986414  0.47966169    -0.18800
H895        H  0.73754299  0.85006024  0.57114898     0.10300
H896        H  0.71856465  0.81890819  0.54103757     0.10400
H897        H  0.79525319  0.79930969  0.51630544     0.10000
H898        H  0.81408945  0.82960283  0.54609659     0.11100
H899        H  0.72397306  0.79138607  0.50549523     0.11200
H900        H  0.77531626  0.74627794  0.50442931     0.13100
H901        H  0.78195889  0.71442207  0.47090181     0.09700
H902        H  0.76471448  0.68179528  0.44060299     0.11700
H903        H  0.68701141  0.71070834  0.46041672     0.08400
H904        H  0.70405715  0.74241750  0.49045518     0.11100
C905        C  0.29578793  0.61307898  0.31926579    -0.03500
C906        C  0.31146366  0.59774262  0.30356699    -0.06100
C907        C  0.30207038  0.59485760  0.28350623    -0.21200
C908        C  0.27664485  0.60632855  0.27879947     0.24500
C909        C  0.26100156  0.62167357  0.29450789    -0.18700
C910        C  0.27045683  0.62505440  0.31441645    -0.08700
C911        C  0.26755545  0.60414762  0.25721187    -0.19000
C912        C  0.24235037  0.60074676  0.25192564    -0.23800
C913        C  0.23304754  0.60159088  0.23032302     0.26600
C914        C  0.20847584  0.58639660  0.22557329    -0.20600
C915        C  0.19872268  0.58848806  0.20557072    -0.10200
C916        C  0.21319858  0.60650184  0.18994296    -0.10700
C917        C  0.23775344  0.62164875  0.19478593    -0.03700
C918        C  0.24751955  0.61931442  0.21461851    -0.18800
H919        H  0.33098261  0.58812260  0.30675842     0.10300
H920        H  0.31463796  0.58333655  0.27163951     0.10400
H921        H  0.24159766  0.63187963  0.29143142     0.10000
H922        H  0.25768953  0.63676362  0.32609892     0.11100
H923        H  0.28236851  0.60444727  0.24536494     0.11200
H924        H  0.22785531  0.59664650  0.26384163     0.13100
H925        H  0.19676644  0.57287536  0.23739710     0.09700
H926        H  0.17980326  0.57641450  0.20240348     0.11700
H927        H  0.24961806  0.63551424  0.18316934     0.08400
H928        H  0.26614439  0.63241683  0.21759623     0.11100
C929        C  0.41568193  0.63912819  0.36355910    -0.03500
C930        C  0.42711617  0.60856607  0.35245527    -0.06100
C931        C  0.45364942  0.60892103  0.34784458    -0.21200
C932        C  0.46947389  0.63992332  0.35399830     0.24500
C933        C  0.45777133  0.67151777  0.36418514    -0.18700
C934        C  0.43122241  0.67108231  0.36885957    -0.08700
C935        C  0.49817720  0.63601587  0.35143656    -0.19000
C936        C  0.51521295  0.66551112  0.35346774    -0.23800
C937        C  0.54400290  0.66070705  0.35457293     0.26600
C938        C  0.55877383  0.69244044  0.36126863    -0.20600
C939        C  0.58519670  0.68844834  0.36531507    -0.10200
C940        C  0.59770307  0.65254317  0.36269136    -0.10700
C941        C  0.58346176  0.62148705  0.35450368    -0.03700
C942        C  0.55692885  0.62546569  0.35047044    -0.18800
H943        H  0.41583661  0.58337002  0.34817583     0.10300
H944        H  0.46202628  0.58413894  0.34004739     0.10400
H945        H  0.46907261  0.69576485  0.36959623     0.10000
H946        H  0.42310683  0.69510889  0.37745202     0.11100
H947        H  0.50529996  0.60695329  0.34869599     0.11200
H948        H  0.50784797  0.69462679  0.35570129     0.13100
H949        H  0.54960146  0.72010219  0.36430811     0.09700
H950        H  0.59556109  0.71317965  0.37139501     0.11700
H951        H  0.59249819  0.59350902  0.35215436     0.08400
H952        H  0.54673762  0.60043495  0.34468738     0.11100
C953        C  0.20928984  0.90493467  0.68987635    -0.03500
C954        C  0.19681519  0.93028862  0.70366440    -0.06100
C955        C  0.20523435  0.93336806  0.72404625    -0.21200
C956        C  0.22651985  0.91172033  0.73102159     0.24500
C957        C  0.23865683  0.88596509  0.71732732    -0.18700
C958        C  0.23018649  0.88265117  0.69712326    -0.08700
C959        C  0.23491638  0.91480514  0.75282400    -0.19000
C960        C  0.25962257  0.90875665  0.75887173    -0.23800
C961        C  0.26816084  0.90867055  0.78069781     0.26600
C962        C  0.29432986  0.91589191  0.78534295    -0.20600
C963        C  0.30329929  0.91387370  0.80558381    -0.10200
C964        C  0.28635055  0.90378044  0.82164437    -0.10700
C965        C  0.26016473  0.89641178  0.81690450    -0.03700
C966        C  0.25119221  0.89888273  0.79678465    -0.18800
H967        H  0.18077395  0.94799883  0.69867058     0.10300
H968        H  0.19529097  0.95312510  0.73434445     0.10400
H969        H  0.25448781  0.86778269  0.72225142     0.10000
H970        H  0.24024380  0.86253395  0.68711271     0.11100
H971        H  0.22036919  0.92315959  0.76408342     0.11200
H972        H  0.27452565  0.90419785  0.74729114     0.13100
H973        H  0.30793095  0.92311290  0.77322471     0.09700
H974        H  0.32351104  0.91975002  0.80860944     0.11700
H975        H  0.24641660  0.88864241  0.82880481     0.08400
H976        H  0.23109399  0.89205423  0.79385971     0.11100
C977        C  0.90933515  0.86651093  0.64254647    -0.03500
C978        C  0.92217799  0.83304971  0.63547631    -0.06100
C979        C  0.94875400  0.82817551  0.63853173    -0.21200
C980        C  0.96342227  0.85651334  0.64867493     0.24500
C981        C  0.95040417  0.88919614  0.65668639    -0.18700
C982        C  0.92368759  0.89411879  0.65360403    -0.08700
C983        C  0.99212639  0.85078239  0.64982035    -0.19000
C984        C  0.00945454  0.87895727  0.65420817    -0.23800
C985        C  0.03830253  0.87470699  0.65227039     0.26600
C986        C  0.05399912  0.90622460  0.65794266    -0.20600
C987        C  0.08071824  0.90598532  0.65403462    -0.10200
C988        C  0.09255265  0.87419923  0.64422898    -0.10700
C989        C  0.07718783  0.84169813  0.63962390    -0.03700
C990        C  0.05045687  0.84187473  0.64357287    -0.18800
H991        H  0.91190201  0.81111671  0.62688374     0.10300
H992        H  0.95806421  0.80254900  0.63230044     0.10400
H993        H  0.96063760  0.91130837  0.66511762     0.10000
H994        H  0.91445404  0.92017106  0.65933326     0.11100
H995        H  0.99906886  0.82225589  0.64558428     0.11200
H996        H  0.00238939  0.90752074  0.65834138     0.13100
H997        H  0.04541091  0.93186400  0.66474805     0.09700
H998        H  0.09187209  0.93160433  0.65781934     0.11700
H999        H  0.08560322  0.81667181  0.63210188     0.08400
H1000       H  0.03956212  0.81670812  0.63889796     0.11100
C1001       C  0.22466918  0.82533044  0.56230159    -0.03500
C1002       C  0.25174779  0.82384782  0.56003794    -0.06100
C1003       C  0.26295618  0.80688627  0.54264787    -0.21200
C1004       C  0.24737524  0.79077992  0.52730183     0.24500
C1005       C  0.22030937  0.79381156  0.52912515    -0.18700
C1006       C  0.20911150  0.81078097  0.54644944    -0.08700
C1007       C  0.26000568  0.77115386  0.50965626    -0.19000
C1008       C  0.24861567  0.74244283  0.49896027    -0.23800
C1009       C  0.26147345  0.72216522  0.48162099     0.26600
C1010       C  0.24608902  0.70509741  0.46644814    -0.20600
C1011       C  0.25751603  0.68699404  0.44949046    -0.10200
C1012       C  0.28462118  0.68536133  0.44747359    -0.10700
C1013       C  0.29999625  0.70098094  0.46313490    -0.03700
C1014       C  0.28857483  0.71903925  0.48005957    -0.18800
H1015       H  0.26428869  0.83479905  0.57194153     0.10300
H1016       H  0.28387333  0.80532956  0.54145261     0.10400
H1017       H  0.20766224  0.78319148  0.51723364     0.10000
H1018       H  0.18818553  0.81191299  0.54755005     0.11100
H1019       H  0.27962533  0.78001200  0.50586990     0.11200
H1020       H  0.22898476  0.73360825  0.50273817     0.13100
H1021       H  0.22515804  0.70669581  0.46744377     0.09700
H1022       H  0.24511715  0.67536919  0.43767494     0.11700
H1023       H  0.32093953  0.69987848  0.46216318     0.08400
H1024       H  0.30108145  0.73036817  0.49185492     0.11100
C1025       C  0.21503070  0.10801658  0.31853795    -0.03500
C1026       C  0.20035656  0.08834370  0.30372896    -0.06100
C1027       C  0.20928822  0.08571113  0.28339222    -0.21200
C1028       C  0.23319958  0.10210970  0.27753391     0.24500
C1029       C  0.24765115  0.12206236  0.29230964    -0.18700
C1030       C  0.23872277  0.12491988  0.31244860    -0.08700
C1031       C  0.24190975  0.10022633  0.25575269    -0.19000
C1032       C  0.26702237  0.10307189  0.24988467    -0.23800
C1033       C  0.27558268  0.10488029  0.22809623     0.26600
C1034       C  0.30071867  0.09275669  0.22266024    -0.20600
C1035       C  0.30940826  0.09483233  0.20229053    -0.10200
C1036       C  0.29324068  0.10969109  0.18697440    -0.10700
C1037       C  0.26832902  0.12278073  0.19261620    -0.03700
C1038       C  0.25963053  0.12043980  0.21286700    -0.18800
H1039       H  0.18203768  0.07504258  0.30783137     0.10300
H1040       H  0.19757411  0.07064068  0.27222980     0.10400
H1041       H  0.26565876  0.13634024  0.28833764     0.10000
H1042       H  0.25061337  0.14047784  0.32330338     0.11100
H1043       H  0.22711785  0.09593323  0.24425128     0.11200
H1044       H  0.28205769  0.10335068  0.26139961     0.13100
H1045       H  0.31356298  0.08125747  0.23417493     0.09700
H1046       H  0.32871394  0.08465476  0.19854101     0.11700
H1047       H  0.25535060  0.13476923  0.18134029     0.08400
H1048       H  0.24054385  0.13147190  0.21656603     0.11100
C1049       C  0.13833684  0.07354852  0.43961018    -0.03500
C1050       C  0.12773632  0.09628748  0.45551869    -0.06100
C1051       C  0.12379984  0.08091259  0.47509801    -0.21200
C1052       C  0.13011686  0.04226379  0.47944256     0.24500
C1053       C  0.13976836  0.01886977  0.46336777    -0.18700
C1054       C  0.14377021  0.03434608  0.44367242    -0.08700
C1055       C  0.12865270  0.02892805  0.50122652    -0.19000
C1056       C  0.12713827  0.99144478  0.50701001    -0.23800
C1057       C  0.12848089  0.97786783  0.52876027     0.26600
C1058       C  0.12032092  0.94000640  0.53333035    -0.20600
C1059       C  0.12465353  0.92384774  0.55264732    -0.10200
C1060       C  0.13738073  0.94506201  0.56803116    -0.10700
C1061       C  0.14418417  0.98377763  0.56392341    -0.03700
C1062       C  0.13990400  0.99998034  0.54450488    -0.18800
H1063       H  0.12330300  0.12659242  0.45305619     0.10300
H1064       H  0.11641693  0.09970894  0.48708789     0.10400
H1065       H  0.14546884  0.98918313  0.46612942     0.10000
H1066       H  0.15234624  0.01615176  0.43192776     0.11100
H1067       H  0.12865306  0.05128024  0.51292495     0.11200
H1068       H  0.12490049  0.96935318  0.49530595     0.13100
H1069       H  0.11135569  0.92227917  0.52165049     0.09700
H1070       H  0.11886801  0.89406910  0.55527221     0.11700
H1071       H  0.15412973  0.00090149  0.57534382     0.08400
H1072       H  0.14687595  0.02903287  0.54166164     0.11100
C1073       C  0.31191551  0.76783601  0.37830626    -0.03500
C1074       C  0.33109214  0.79552003  0.38292603    -0.06100
C1075       C  0.32512062  0.83519384  0.38329412    -0.21200
C1076       C  0.29983249  0.84796393  0.37937860     0.24500
C1077       C  0.28110752  0.82052900  0.37351591    -0.18700
C1078       C  0.28707164  0.78102881  0.37300273    -0.08700
C1079       C  0.29317588  0.88977359  0.38180293    -0.19000
C1080       C  0.26975604  0.90101794  0.38891883    -0.23800
C1081       C  0.26052265  0.94180878  0.39122910     0.26600
C1082       C  0.23520146  0.94724897  0.39863514    -0.20600
C1083       C  0.22400359  0.98396892  0.39905703    -0.10200
C1084       C  0.23780754  0.01657797  0.39214878    -0.10700
C1085       C  0.26376791  0.01188072  0.38596328    -0.03700
C1086       C  0.27504858  0.97475334  0.38541624    -0.18800
H1087       H  0.35041146  0.78648711  0.38710833     0.10300
H1088       H  0.33999516  0.85580435  0.38754431     0.10400
H1089       H  0.26167551  0.82946635  0.36960576     0.10000
H1090       H  0.27182854  0.76071039  0.36922037     0.11100
H1091       H  0.30814440  0.91098696  0.37855482     0.11200
H1092       H  0.25603583  0.87853775  0.39328410     0.13100
H1093       H  0.22355679  0.92269830  0.40341346     0.09700
H1094       H  0.20401427  0.98660840  0.40404978     0.11700
H1095       H  0.27480933  0.03646469  0.38042602     0.08400
H1096       H  0.29468332  0.97207819  0.37974233     0.11100
C1097       C  0.26816448  0.51997281  0.38837443    -0.03500
C1098       C  0.24124141  0.52178524  0.38533595    -0.06100
C1099       C  0.22658093  0.48762223  0.38378431    -0.21200
C1100       C  0.23863819  0.45122153  0.38499719     0.24500
C1101       C  0.26524089  0.44957195  0.38929473    -0.18700
C1102       C  0.27980925  0.48348381  0.39090721    -0.08700
C1103       C  0.22340595  0.41511169  0.38188221    -0.19000
C1104       C  0.23377747  0.38404411  0.37226253    -0.23800
C1105       C  0.22157393  0.34495592  0.37060351     0.26600
C1106       C  0.23570508  0.31547081  0.36069543    -0.20600
C1107       C  0.22752785  0.27684828  0.36159998    -0.10200
C1108       C  0.20478601  0.26679072  0.37223814    -0.10700
C1109       C  0.18948383  0.29662371  0.38071599    -0.03700
C1110       C  0.19782778  0.33525710  0.38002654    -0.18800
H1111       H  0.23172811  0.54945036  0.38327775     0.10300
H1112       H  0.20600133  0.48959051  0.38082845     0.10400
H1113       H  0.27491430  0.42199366  0.39119817     0.10000
H1114       H  0.30042029  0.48105327  0.39360297     0.11100
H1115       H  0.20352348  0.41477095  0.38731942     0.11200
H1116       H  0.25315323  0.38694063  0.36580960     0.13100
H1117       H  0.25390716  0.32201562  0.35310400     0.09700
H1118       H  0.23966134  0.25463457  0.35477470     0.11700
H1119       H  0.17187955  0.28987567  0.38907767     0.08400
H1120       H  0.18611350  0.35682037  0.38774469     0.11100
C1121       C  0.29293143  0.39530046  0.69252169    -0.03500
C1122       C  0.30320208  0.42255670  0.70628511    -0.06100
C1123       C  0.29366095  0.42498798  0.72645545    -0.21200
C1124       C  0.27347652  0.40060747  0.73320065     0.24500
C1125       C  0.26396968  0.37235644  0.71970589    -0.18700
C1126       C  0.27357067  0.36973792  0.69967729    -0.08700
C1127       C  0.26338695  0.40401196  0.75457181    -0.19000
C1128       C  0.23845386  0.39666393  0.75982436    -0.23800
C1129       C  0.22866747  0.39775826  0.78137499     0.26600
C1130       C  0.20241269  0.40595438  0.78545982    -0.20600
C1131       C  0.19271691  0.40596940  0.80563223    -0.10200
C1132       C  0.20902058  0.39702992  0.82211442    -0.10700
C1133       C  0.23516207  0.38816567  0.81786286    -0.03700
C1134       C  0.24483835  0.38858437  0.79784462    -0.18800
H1135       H  0.31801748  0.44275949  0.70129852     0.10300
H1136       H  0.30160726  0.44662467  0.73667082     0.10400
H1137       H  0.24914742  0.35211047  0.72462084     0.10000
H1138       H  0.26545667  0.34794046  0.68963809     0.11100
H1139       H  0.27674809  0.41418626  0.76615227     0.11200
H1140       H  0.22453892  0.39038428  0.74788506     0.13100
H1141       H  0.18942484  0.41263579  0.77301738     0.09700
H1142       H  0.17249826  0.41281767  0.80830235     0.11700
H1143       H  0.24836736  0.38097483  0.83007199     0.08400
H1144       H  0.26492634  0.38086586  0.79530680     0.11100
C1145       C  0.24029596  0.99277865  0.61877746    -0.03500
C1146       C  0.26744858  0.99021734  0.62014651    -0.06100
C1147       C  0.28251399  0.02389653  0.62210141    -0.21200
C1148       C  0.27061366  0.06043697  0.62302817     0.24500
C1149       C  0.24371299  0.06301612  0.62034544    -0.18700
C1150       C  0.22876760  0.02966299  0.61825792    -0.08700
C1151       C  0.28620731  0.09597616  0.62637176    -0.19000
C1152       C  0.27678199  0.12566666  0.63764837    -0.23800
C1153       C  0.28795565  0.16540008  0.63845376     0.26600
C1154       C  0.27417496  0.19399264  0.64935816    -0.20600
C1155       C  0.28091805  0.23310249  0.64766178    -0.10200
C1156       C  0.30182675  0.24443205  0.63519352    -0.10700
C1157       C  0.31687347  0.21559922  0.62557190    -0.03700
C1158       C  0.30997404  0.17653460  0.62708747    -0.18800
H1159       H  0.27691995  0.96224713  0.62057860     0.10300
H1160       H  0.30330994  0.02134348  0.62369978     0.10400
H1161       H  0.23411184  0.09089802  0.62005927     0.10000
H1162       H  0.20797873  0.03282606  0.61690729     0.11100
H1163       H  0.30513994  0.09747185  0.61915917     0.11200
H1164       H  0.25851024  0.12138547  0.64571272     0.13100
H1165       H  0.25725826  0.18630346  0.65836742     0.09700
H1166       H  0.26905303  0.25458571  0.65540021     0.11700
H1167       H  0.33310986  0.22333763  0.61583256     0.08400
H1168       H  0.32136250  0.15572614  0.61853954     0.11100
C1169       C  0.19789050  0.74673937  0.63604516    -0.03500
C1170       C  0.21842149  0.73681838  0.64901105    -0.06100
C1171       C  0.22627757  0.69820105  0.65091138    -0.21200
C1172       C  0.21413506  0.66859930  0.63968219     0.24500
C1173       C  0.19234713  0.67819571  0.62785561    -0.18700
C1174       C  0.18430701  0.71684326  0.62613714    -0.08700
C1175       C  0.22621952  0.62925711  0.63968335    -0.19000
C1176       C  0.21975810  0.59977377  0.62705539    -0.23800
C1177       C  0.23524740  0.56343825  0.62577652     0.26600
C1178       C  0.22303577  0.52792970  0.62152479    -0.20600
C1179       C  0.23737848  0.49337090  0.62066542    -0.10200
C1180       C  0.26433807  0.49383396  0.62369849    -0.10700
C1181       C  0.27661131  0.52980092  0.62691562    -0.03700
C1182       C  0.26229281  0.56406388  0.62795842    -0.18800
H1183       H  0.22916381  0.75910649  0.65698632     0.10300
H1184       H  0.24285198  0.69175167  0.66040187     0.10400
H1185       H  0.18191339  0.65650555  0.61932427     0.10000
H1186       H  0.16841104  0.72352464  0.61601708     0.11100
H1187       H  0.24246018  0.62509812  0.64993942     0.11200
H1188       H  0.20301419  0.60186389  0.61723524     0.13100
H1189       H  0.20224733  0.52681424  0.61937750     0.09700
H1190       H  0.22730799  0.46628617  0.61807547     0.11700
H1191       H  0.29736758  0.53152739  0.62901334     0.08400
H1192       H  0.27250922  0.59110269  0.63036397     0.11100
C1193       C  0.36197293  0.44705235  0.57077475    -0.03500
C1194       C  0.35851013  0.48734608  0.56975685    -0.06100
C1195       C  0.36259848  0.50718967  0.55132669    -0.21200
C1196       C  0.37014127  0.48735965  0.53340760     0.24500
C1197       C  0.37478406  0.44724435  0.53464984    -0.18700
C1198       C  0.37064796  0.42740158  0.55306866    -0.08700
C1199       C  0.37238958  0.50982661  0.51392295    -0.19000
C1200       C  0.37330811  0.49400934  0.49494122    -0.23800
C1201       C  0.37272432  0.51710657  0.47553684     0.26600
C1202       C  0.36779744  0.49791439  0.45692784    -0.20600
C1203       C  0.36513157  0.51871424  0.43861671    -0.10200
C1204       C  0.36742082  0.55933905  0.43845480    -0.10700
C1205       C  0.37352246  0.57829561  0.45688829    -0.03700
C1206       C  0.37628657  0.55758669  0.47510756    -0.18800
H1207       H  0.35178847  0.50342172  0.58301908     0.10300
H1208       H  0.35911491  0.53812169  0.55094903     0.10400
H1209       H  0.38140254  0.43083977  0.52152648     0.10000
H1210       H  0.37376485  0.39636546  0.55329275     0.11100
H1211       H  0.37139604  0.54099219  0.51553734     0.11200
H1212       H  0.37274485  0.46277011  0.49330332     0.13100
H1213       H  0.36524172  0.46675001  0.45663494     0.09700
H1214       H  0.36041771  0.50308287  0.42474881     0.11700
H1215       H  0.37561248  0.60953267  0.45740570     0.08400
H1216       H  0.38101545  0.57382964  0.48869785     0.11100
C1217       C  0.22513802  0.18814221  0.44582134    -0.03500
C1218       C  0.25193850  0.19228238  0.44857817    -0.06100
C1219       C  0.26147415  0.21108663  0.46598460    -0.21200
C1220       C  0.24444445  0.22617698  0.48089096     0.24500
C1221       C  0.21769837  0.22005653  0.47861445    -0.18700
C1222       C  0.20820420  0.20141300  0.46127199    -0.08700
C1223       C  0.25533067  0.24778019  0.49857486    -0.19000
C1224       C  0.24154971  0.27266626  0.51034969    -0.23800
C1225       C  0.25292431  0.29364393  0.52800295     0.26600
C1226       C  0.23702741  0.30365147  0.54474391    -0.20600
C1227       C  0.24761776  0.32099844  0.56220071    -0.10200
C1228       C  0.27429652  0.32890226  0.56310975    -0.10700
C1229       C  0.28983085  0.32101133  0.54581901    -0.03700
C1230       C  0.27927811  0.30374057  0.52845609    -0.18800
H1231       H  0.26546549  0.18238493  0.43694911     0.10300
H1232       H  0.28220024  0.21486667  0.46751821     0.10400
H1233       H  0.20390943  0.22955567  0.49008690     0.10000
H1234       H  0.18743572  0.19809321  0.45978681     0.11100
H1235       H  0.27569786  0.24322868  0.50177345     0.11200
H1236       H  0.22112767  0.27727177  0.50751980     0.13100
H1237       H  0.21656199  0.29671700  0.54461158     0.09700
H1238       H  0.23514635  0.32669903  0.57526522     0.11700
H1239       H  0.31037739  0.32735146  0.54586951     0.08400
H1240       H  0.29189708  0.29813361  0.51548877     0.11100
C1241       C  0.79709862  0.11812654  0.32149326    -0.03500
C1242       C  0.81350337  0.10805383  0.30503877    -0.06100
C1243       C  0.80397865  0.10678140  0.28489414    -0.21200
C1244       C  0.77774955  0.11474603  0.28074552     0.24500
C1245       C  0.76148428  0.12506549  0.29720075    -0.18700
C1246       C  0.77098702  0.12671387  0.31718297    -0.08700
C1247       C  0.76818965  0.11383251  0.25913054    -0.19000
C1248       C  0.74301834  0.10833516  0.25401688    -0.23800
C1249       C  0.73313136  0.10877713  0.23251664     0.26600
C1250       C  0.70976898  0.08964793  0.22782256    -0.20600
C1251       C  0.69990903  0.08968821  0.20779506    -0.10200
C1252       C  0.71303734  0.10938021  0.19200283    -0.10700
C1253       C  0.73599849  0.12949374  0.19694482    -0.03700
C1254       C  0.74587598  0.12921135  0.21683107    -0.18800
H1255       H  0.83369225  0.10134983  0.30770677     0.10300
H1256       H  0.81710615  0.09922301  0.27251433     0.10400
H1257       H  0.74141253  0.13266855  0.29473035     0.10000
H1258       H  0.75764592  0.13458281  0.32934685     0.11100
H1259       H  0.78262045  0.11663389  0.24706509     0.11200
H1260       H  0.72900538  0.10185111  0.26598265     0.13100
H1261       H  0.69927157  0.07414157  0.23966075     0.09700
H1262       H  0.68218818  0.07400684  0.20465659     0.11700
H1263       H  0.74662190  0.14543585  0.18535430     0.08400
H1264       H  0.76334971  0.14552789  0.21986511     0.11100
C1265       C  0.80515887  0.27007528  0.38035728    -0.03500
C1266       C  0.78218117  0.27910554  0.37003774    -0.06100
C1267       C  0.77323627  0.31724810  0.36927356    -0.21200
C1268       C  0.78688999  0.34737353  0.37888307     0.24500
C1269       C  0.81059454  0.33867667  0.38836567    -0.18700
C1270       C  0.81965537  0.30044653  0.38899967    -0.08700
C1271       C  0.77445349  0.38629564  0.37980056    -0.19000
C1272       C  0.78464145  0.41822390  0.38859866    -0.23800
C1273       C  0.76955842  0.45474891  0.39062109     0.26600
C1274       C  0.78226899  0.49073278  0.38986050    -0.20600
C1275       C  0.76805414  0.52535696  0.39053885    -0.10200
C1276       C  0.74086465  0.52445929  0.39213996    -0.10700
C1277       C  0.72839230  0.48842773  0.39415417    -0.03700
C1278       C  0.74254601  0.45404046  0.39351093    -0.18800
H1279       H  0.77052118  0.25645349  0.36320267     0.10300
H1280       H  0.75499316  0.32297113  0.36178743     0.10400
H1281       H  0.82183259  0.36073386  0.39600399     0.10000
H1282       H  0.83732916  0.29444700  0.39721800     0.11100
H1283       H  0.75527658  0.38845615  0.37316014     0.11200
H1284       H  0.80440853  0.41833484  0.39405880     0.13100
H1285       H  0.80313438  0.49202694  0.38800556     0.09700
H1286       H  0.77821116  0.55265202  0.38893905     0.11700
H1287       H  0.70752345  0.48672888  0.39576209     0.08400
H1288       H  0.73221512  0.42689054  0.39514357     0.11100
C1289       C  0.77715865  0.01908825  0.39281938    -0.03500
C1290       C  0.79089037  0.98642479  0.39942866    -0.06100
C1291       C  0.77937392  0.94989466  0.39911410    -0.21200
C1292       C  0.75411429  0.94501247  0.39176465     0.24500
C1293       C  0.73976681  0.97804671  0.38622446    -0.18700
C1294       C  0.75121707  0.01489895  0.38688895    -0.08700
C1295       C  0.74427831  0.90478526  0.38959585    -0.19000
C1296       C  0.72483962  0.89386099  0.37720206    -0.23800
C1297       C  0.71827750  0.85229765  0.37458992     0.26600
C1298       C  0.69229853  0.84046921  0.37410859    -0.20600
C1299       C  0.68599597  0.80094521  0.37433453    -0.10200
C1300       C  0.70564914  0.77265934  0.37453886    -0.10700
C1301       C  0.73162377  0.78477887  0.37325528    -0.03700
C1302       C  0.73786507  0.82412293  0.37333505    -0.18800
H1303       H  0.81084817  0.98901277  0.40424802     0.10300
H1304       H  0.79072565  0.92505332  0.40377319     0.10400
H1305       H  0.71998604  0.97559702  0.38106974     0.10000
H1306       H  0.74027956  0.03977714  0.38173693     0.11100
H1307       H  0.75474041  0.88242054  0.39781856     0.11200
H1308       H  0.71336454  0.91515889  0.36912848     0.13100
H1309       H  0.67690405  0.86177568  0.37471377     0.09700
H1310       H  0.66579350  0.79258244  0.37523763     0.11700
H1311       H  0.74727296  0.76389858  0.37334429     0.08400
H1312       H  0.75808922  0.83249465  0.37296861     0.11100
C1313       C  0.87309747  0.06911081  0.43976805    -0.03500
C1314       C  0.86849325  0.02899317  0.44070148    -0.06100
C1315       C  0.87043757  0.00904868  0.45929995    -0.21200
C1316       C  0.87687167  0.02856600  0.47749483     0.24500
C1317       C  0.88295118  0.06829849  0.47634784    -0.18700
C1318       C  0.88099893  0.08827185  0.45775261    -0.08700
C1319       C  0.87657952  0.00638039  0.49717776    -0.19000
C1320       C  0.87473615  0.02271146  0.51600997    -0.23800
C1321       C  0.87199340  0.00027379  0.53556199     0.26600
C1322       C  0.86361333  0.01963330  0.55341908    -0.20600
C1323       C  0.85946136  0.99945347  0.57182012    -0.10200
C1324       C  0.86373232  0.95926795  0.57286255    -0.10700
C1325       C  0.87304623  0.94019992  0.55518825    -0.03700
C1326       C  0.87722720  0.96031995  0.53687769    -0.18800
H1327       H  0.86222713  0.01326833  0.42726611     0.10300
H1328       H  0.86594632  0.97835799  0.45959013     0.10400
H1329       H  0.88892043  0.08431145  0.48974515     0.10000
H1330       H  0.88487996  0.11912505  0.45763919     0.11100
H1331       H  0.87594368  0.97509177  0.49576756     0.11200
H1332       H  0.87350063  0.05401095  0.51725862     0.13100
H1333       H  0.85961916  0.05045805  0.55301880     0.09700
H1334       H  0.85216950  0.01510919  0.58501853     0.11700
H1335       H  0.87670131  0.90929168  0.55533290     0.08400
H1336       H  0.88450259  0.94414752  0.52388661     0.11100
C1337       C  0.09780434  0.14676068  0.36038421    -0.03500
C1338       C  0.08666762  0.11872530  0.34750756    -0.06100
C1339       C  0.06015155  0.11987459  0.34310340    -0.21200
C1340       C  0.04417011  0.14902503  0.35139701     0.24500
C1341       C  0.05580212  0.17865087  0.36303259    -0.18700
C1342       C  0.08227017  0.17763012  0.36730538    -0.08700
C1343       C  0.01543449  0.14490954  0.34956518    -0.19000
C1344       C  0.99830918  0.17297533  0.35470339    -0.23800
C1345       C  0.96965415  0.16742826  0.35665725     0.26600
C1346       C  0.95498665  0.19776578  0.36523838    -0.20600
C1347       C  0.92859178  0.19306001  0.36954520    -0.10200
C1348       C  0.91602467  0.15783295  0.36528549    -0.10700
C1349       C  0.93028990  0.12814798  0.35564293    -0.03700
C1350       C  0.95678065  0.13277374  0.35141228    -0.18800
H1351       H  0.09809015  0.09469098  0.34176095     0.10300
H1352       H  0.05186344  0.09679025  0.33398269     0.10400
H1353       H  0.04455684  0.20153626  0.37002360     0.10000
H1354       H  0.09017052  0.19982886  0.37720236     0.11100
H1355       H  0.00844851  0.11673898  0.34481140     0.11200
H1356       H  0.00550844  0.20144720  0.35872299     0.13100
H1357       H  0.96419181  0.22487937  0.36936355     0.09700
H1358       H  0.91826229  0.21660043  0.37693930     0.11700
H1359       H  0.92126836  0.10057169  0.35218790     0.08400
H1360       H  0.96692648  0.10869011  0.34450245     0.11100
C1361       C  0.71104925  0.41169788  0.68947923    -0.03500
C1362       C  0.69423114  0.42443588  0.70511677    -0.06100
C1363       C  0.70231746  0.42472347  0.72563822    -0.21200
C1364       C  0.72751565  0.41301267  0.73098643     0.24500
C1365       C  0.74423231  0.40009792  0.71533074    -0.18700
C1366       C  0.73613641  0.39951960  0.69495120    -0.08700
C1367       C  0.73542042  0.41294429  0.75300156    -0.19000
C1368       C  0.76036626  0.41526292  0.75922090    -0.23800
C1369       C  0.76882369  0.41378480  0.78108929     0.26600
C1370       C  0.79359751  0.42766444  0.78628479    -0.20600
C1371       C  0.80279650  0.42508523  0.80642817    -0.10200
C1372       C  0.78754810  0.40803781  0.82188943    -0.10700
C1373       C  0.76269608  0.39429796  0.81665593    -0.03700
C1374       C  0.75349044  0.39704402  0.79659901    -0.18800
H1375       H  0.67476586  0.43378049  0.70153605     0.10300
H1376       H  0.68886914  0.43434713  0.73738549     0.10400
H1377       H  0.76344848  0.38958592  0.71873965     0.10000
H1378       H  0.74970503  0.38933837  0.68342517     0.11100
H1379       H  0.71999838  0.41225555  0.76436376     0.11200
H1380       H  0.77549310  0.41951641  0.74782555     0.13100
H1381       H  0.80595401  0.44050437  0.77466683     0.09700
H1382       H  0.82193810  0.43612865  0.80983385     0.11700
H1383       H  0.75026462  0.38102588  0.82807590     0.08400
H1384       H  0.73460112  0.38507097  0.79328833     0.11100
C1385       C  0.64157475  0.57736065  0.44071645    -0.03500
C1386       C  0.62808170  0.59800205  0.45602776    -0.06100
C1387       C  0.62542893  0.58295104  0.47578672    -0.21200
C1388       C  0.63600989  0.54679495  0.48076672     0.24500
C1389       C  0.64908174  0.52565039  0.46536997    -0.18700
C1390       C  0.65170180  0.54070808  0.44553764    -0.08700
C1391       C  0.63433424  0.53322338  0.50237784    -0.19000
C1392       C  0.63476285  0.49549048  0.50761177    -0.23800
C1393       C  0.63409573  0.48089784  0.52907781     0.26600
C1394       C  0.62844780  0.44158159  0.53223225    -0.20600
C1395       C  0.63053705  0.42508783  0.55163821    -0.10200
C1396       C  0.63854020  0.44744387  0.56847988    -0.10700
C1397       C  0.64285900  0.48732561  0.56562011    -0.03700
C1398       C  0.64076881  0.50390729  0.54611054    -0.18800
H1399       H  0.62023548  0.62647116  0.45290436     0.10300
H1400       H  0.61541110  0.59994474  0.48733674     0.10400
H1401       H  0.65824918  0.49823482  0.46875668     0.10000
H1402       H  0.66281764  0.52456097  0.43428616     0.11100
H1403       H  0.63168822  0.55510768  0.51413754     0.11200
H1404       H  0.63514750  0.47384390  0.49554290     0.13100
H1405       H  0.62317640  0.42317571  0.51947937     0.09700
H1406       H  0.62691394  0.39430352  0.55323440     0.11700
H1407       H  0.64923763  0.50531813  0.57821310     0.08400
H1408       H  0.64567143  0.53419096  0.54437762     0.11100
C1409       C  0.79910917  0.75367541  0.63170026    -0.03500
C1410       C  0.77656891  0.74283121  0.64241056    -0.06100
C1411       C  0.76876898  0.70409285  0.64297259    -0.21200
C1412       C  0.78314240  0.67536691  0.63271674     0.24500
C1413       C  0.80668496  0.68578337  0.62322803    -0.18700
C1414       C  0.81456577  0.72454762  0.62275845    -0.08700
C1415       C  0.77167535  0.63596389  0.63120589    -0.19000
C1416       C  0.78015873  0.60758304  0.61862285    -0.23800
C1417       C  0.76500666  0.57147830  0.61599382     0.26600
C1418       C  0.77762253  0.53559986  0.61440352    -0.20600
C1419       C  0.76322415  0.50114406  0.61406926    -0.10200
C1420       C  0.73599239  0.50226832  0.61509144    -0.10700
C1421       C  0.72350175  0.53845547  0.61487974    -0.03700
C1422       C  0.73783725  0.57265546  0.61531396    -0.18800
H1423       H  0.76429477  0.76445688  0.64958428     0.10300
H1424       H  0.75072272  0.69686746  0.65062308     0.10400
H1425       H  0.81877043  0.66461288  0.61560740     0.10000
H1426       H  0.83212942  0.73186154  0.61447098     0.11100
H1427       H  0.75411475  0.63081430  0.64007438     0.11200
H1428       H  0.79814967  0.61030891  0.61012376     0.13100
H1429       H  0.79858889  0.53416372  0.61443810     0.09700
H1430       H  0.77339926  0.47372574  0.61402842     0.11700
H1431       H  0.70255801  0.54041619  0.61517382     0.08400
H1432       H  0.72762211  0.60004946  0.61556478     0.11100
C1433       C  0.76659489  0.00328622  0.62466308    -0.03500
C1434       C  0.74017301  0.00411531  0.61955159    -0.06100
C1435       C  0.72632488  0.03910912  0.62019077    -0.21200
C1436       C  0.73855262  0.07367182  0.62619619     0.24500
C1437       C  0.76517984  0.07297882  0.63046027    -0.18700
C1438       C  0.77894373  0.03829879  0.62979668    -0.08700
C1439       C  0.72360840  0.11044203  0.62735108    -0.19000
C1440       C  0.72975277  0.13882176  0.64071584    -0.23800
C1441       C  0.71823970  0.17827722  0.64072469     0.26600
C1442       C  0.73257014  0.20860278  0.64947428    -0.20600
C1443       C  0.72415891  0.24692769  0.64794208    -0.10200
C1444       C  0.70095505  0.25574001  0.63787733    -0.10700
C1445       C  0.68563437  0.22514917  0.63042978    -0.03700
C1446       C  0.69421364  0.18675990  0.63175772    -0.18800
H1447       H  0.73011065  0.97769086  0.61544784     0.10300
H1448       H  0.70591989  0.03905705  0.61644991     0.10400
H1449       H  0.77558055  0.09929056  0.63417839     0.10000
H1450       H  0.79935623  0.03898614  0.63349364     0.11100
H1451       H  0.70774466  0.11413326  0.61675939     0.11200
H1452       H  0.74533710  0.13387507  0.65146039     0.13100
H1453       H  0.75099279  0.20284368  0.65668707     0.09700
H1454       H  0.73638858  0.26980128  0.65388118     0.11700
H1455       H  0.66768699  0.23100521  0.62253746     0.08400
H1456       H  0.68221613  0.16411454  0.62541061     0.11100
C1457       C  0.59145766  0.37903820  0.64450921    -0.03500
C1458       C  0.57843453  0.41178377  0.65226116    -0.06100
C1459       C  0.55154317  0.41120844  0.65530190    -0.21200
C1460       C  0.53689104  0.37789097  0.65090805     0.24500
C1461       C  0.55010734  0.34450739  0.64401719    -0.18700
C1462       C  0.57700801  0.34515149  0.64087071    -0.08700
C1463       C  0.50795808  0.38053361  0.65220466    -0.19000
C1464       C  0.49159474  0.35005246  0.65080266    -0.23800
C1465       C  0.46284081  0.35400720  0.64933029     0.26600
C1466       C  0.44887436  0.32458491  0.63944649    -0.20600
C1467       C  0.42228033  0.32841692  0.63599411    -0.10200
C1468       C  0.40880150  0.36171957  0.64253612    -0.10700
C1469       C  0.42245611  0.39015040  0.65356019    -0.03700
C1470       C  0.44915823  0.38635982  0.65694450    -0.18800
H1471       H  0.58880248  0.43854455  0.65502240     0.10300
H1472       H  0.54202291  0.43744263  0.66054923     0.10400
H1473       H  0.53986535  0.31825059  0.64011146     0.10000
H1474       H  0.58634661  0.31947098  0.63476931     0.11100
H1475       H  0.49988457  0.40947121  0.65345120     0.11200
H1476       H  0.49934213  0.32101959  0.64926213     0.13100
H1477       H  0.45877713  0.29911873  0.63363137     0.09700
H1478       H  0.41248192  0.30580238  0.62752888     0.11700
H1479       H  0.41270964  0.41603919  0.65896320     0.08400
H1480       H  0.45897149  0.40902516  0.66531420     0.11100
C1481       C  0.72436081  0.32377800  0.56434019    -0.03500
C1482       C  0.75092504  0.32857413  0.56016187    -0.06100
C1483       C  0.76292469  0.30738523  0.54444512    -0.21200
C1484       C  0.74874363  0.28076704  0.53268073     0.24500
C1485       C  0.72195608  0.27715066  0.53635909    -0.18700
C1486       C  0.70998509  0.29829597  0.55200656    -0.08700
C1487       C  0.76233182  0.25855453  0.51626313    -0.19000
C1488       C  0.75266936  0.22628979  0.50743470    -0.23800
C1489       C  0.76509194  0.20760893  0.48942877     0.26600
C1490       C  0.74932598  0.19120330  0.47429844    -0.20600
C1491       C  0.76014536  0.17728637  0.45602573    -0.10200
C1492       C  0.78703950  0.17908151  0.45268951    -0.10700
C1493       C  0.80294796  0.19292755  0.46853066    -0.03700
C1494       C  0.79209924  0.20708945  0.48670225    -0.18800
H1495       H  0.76257786  0.34796111  0.56933406     0.10300
H1496       H  0.78349399  0.31127976  0.54171955     0.10400
H1497       H  0.70996733  0.25834644  0.52719080     0.10000
H1498       H  0.68944758  0.29402273  0.55467345     0.11100
H1499       H  0.78082161  0.26989987  0.51095675     0.11200
H1500       H  0.73417066  0.21462144  0.51238178     0.13100
H1501       H  0.72845777  0.19081801  0.47622086     0.09700
H1502       H  0.74737305  0.16655183  0.44423396     0.11700
H1503       H  0.82380442  0.19399179  0.46665634     0.08400
H1504       H  0.80483918  0.21815992  0.49843317     0.11100
loop_ 
_geom_bond_atom_site_label_1 
_geom_bond_atom_site_label_2 
_geom_bond_distance 
_geom_bond_site_symmetry_2 
_ccdc_geom_bond_type 
Fe1          O17   2.067       .  S
Fe1           O7   2.105       .  S
Fe1          O14   2.092       .  S
Fe1           O6   2.049       .  S
Fe1          O12   1.976       .  S
Fe2           O5   2.062       .  S
Fe2           O9   2.064       .  S
Fe2          O13   2.058       .  S
Fe2          O18   2.061       .  S
Fe2          O12   1.973       .  S
Fe3          O21   2.071       .  S
Fe3           O8   2.065       .  S
Fe3          O15   2.062       .  S
Fe3           O4   2.067       .  S
Fe3          O12   1.974       .  S
O4           C11   1.265       .  A
O5           C19   1.272       .  A
O6           C11   1.263       .  A
O7           C10   1.281       .  A
O8           C20   1.267       .  A
O9           C22   1.265       .  A
C10          O15   1.273       .  A
C10        C1361   1.495       .  S
C11        C1420   1.481       .  S
O13          C16   1.274       .  A
O14          C16   1.279       .  A
C16        C1396   1.487       .  S
O17          C22   1.265       .  A
O18          C20   1.267       .  A
C19          O21   1.273       .  A
C19        C1444   1.480       .  S
C20        C1481   1.484       .  S
C22        C1457   1.490       .  S
Fe23         O39   2.090       .  S
Fe23         O29   2.047       .  S
Fe23         O36   2.071       .  S
Fe23         O28   2.107       .  S
Fe23         O34   1.977       .  S
Fe24         O27   2.051       .  S
Fe24         O31   2.063       .  S
Fe24         O35   2.061       .  S
Fe24         O40   2.066       .  S
Fe24         O34   1.980       .  S
Fe25         O43   2.072       .  S
Fe25         O30   2.068       .  S
Fe25         O37   2.068       .  S
Fe25         O26   2.068       .  S
Fe25         O34   1.978       .  S
O26          C33   1.274       .  A
O27          C41   1.265       .  A
O28          C33   1.281       .  A
O29          C32   1.263       .  A
O30          C42   1.272       .  A
O31          C44   1.271       .  A
C32          O37   1.265       .  A
C32        C1289   1.473       .  S
C33        C1241   1.499       .  S
O35          C38   1.266       .  A
O36          C38   1.267       .  A
C38        C1348   1.488       .  S
O39          C44   1.277       .  A
O40          C42   1.271       .  A
C41          O43   1.269       .  A
C41        C1492   1.483       .  S
C42        C1265   1.483       .  S
C44        C1313   1.492       .  S
Fe45         O61   2.095       .  S
Fe45         O51   2.053       .  S
Fe45         O58   2.078       .  S
Fe45         O50   2.100       .  S
Fe45         O56   1.979       .  S
Fe46         O49   2.049       .  S
Fe46         O53   2.055       .  S
Fe46         O57   2.057       .  S
Fe46         O62   2.054       .  S
Fe46         O56   1.975       .  S
Fe47         O65   2.076       .  S
Fe47         O52   2.077       .  S
Fe47         O59   2.084       .  S
Fe47         O48   2.062       .  S
Fe47         O56   1.982       .  S
O48          C55   1.272       .  A
O49          C63   1.265       .  A
O50          C55   1.280       .  A
O51          C54   1.265       .  A
O52          C64   1.273       .  A
O53          C66   1.270       .  A
C54          O59   1.270       .  A
C54        C1180   1.490       .  S
C55        C1121   1.492       .  S
O57          C60   1.265       .  A
O58          C60   1.268       .  A
C60        C1468   1.491       .  S
O61          C66   1.278       .  A
O62          C64   1.269       .  A
C63          O65   1.269       .  A
C63        C1228   1.482       .  S
C64        C1156   1.481       .  S
C66        C1193   1.489       .  S
Fe67         O83   2.068       .  S
Fe67         O73   2.103       .  S
Fe67         O80   2.103       .  S
Fe67         O72   2.038       .  S
Fe67         O78   1.977       .  S
Fe68         O71   2.059       .  S
Fe68         O75   2.056       .  S
Fe68         O79   2.058       .  S
Fe68         O84   2.048       .  S
Fe68         O78   1.974       .  S
Fe69         O87   2.085       .  S
Fe69         O74   2.073       .  S
Fe69         O81   2.055       .  S
Fe69         O70   2.091       .  S
Fe69         O78   1.981       .  S
O70          C77   1.270       .  A
O71          C85   1.269       .  A
O72          C77   1.262       .  A
O73          C76   1.280       .  A
O74          C86   1.271       .  A
O75          C88   1.265       .  A
C76          O81   1.272       .  A
C76        C1025   1.491       .  S
C77        C1084   1.484       .  S
O79          C82   1.270       .  A
O80          C82   1.278       .  A
C82        C1049   1.495       .  S
O83          C88   1.266       .  A
O84          C86   1.266       .  A
C85          O87   1.274       .  A
C85        C1108   1.485       .  S
C86        C1217   1.479       .  S
C88        C1337   1.486       .  S
Fe89        O105   2.067       .  S
Fe89         O95   2.106       .  S
Fe89        O102   2.100       .  S
Fe89         O94   2.046       .  S
Fe89        O100   1.978       .  S
Fe90         O93   2.069       .  S
Fe90         O97   2.068       .  S
Fe90        O101   2.066       .  S
Fe90        O106   2.058       .  S
Fe90        O100   1.980       .  S
Fe91        O109   2.071       .  S
Fe91         O96   2.068       .  S
Fe91        O103   2.060       .  S
Fe91         O92   2.074       .  S
Fe91        O100   1.981       .  S
O92          C99   1.267       .  A
O93         C107   1.271       .  A
O94          C99   1.264       .  A
O95          C98   1.281       .  A
O96         C108   1.270       .  A
O97         C110   1.268       .  A
C98         O103   1.272       .  A
C98         C953   1.496       .  S
C99        C1145   1.483       .  S
O101        C104   1.272       .  A
O102        C104   1.278       .  A
C104       C1060   1.494       .  S
O105        C110   1.267       .  A
O106        C108   1.268       .  A
C107        O109   1.271       .  A
C107       C1169   1.485       .  S
C108       C1001   1.482       .  S
C110        C988   1.490       .  S
Fe111       O127   2.090       .  S
Fe111       O117   2.045       .  S
Fe111       O124   2.067       .  S
Fe111       O116   2.097       .  S
Fe111       O122   1.978       .  S
Fe112       O115   2.059       .  S
Fe112       O119   2.062       .  S
Fe112       O123   2.068       .  S
Fe112       O128   2.069       .  S
Fe112       O122   1.978       .  S
Fe113       O131   2.060       .  S
Fe113       O118   2.077       .  S
Fe113       O125   2.078       .  S
Fe113       O114   2.056       .  S
Fe113       O122   1.976       .  S
O114        C121   1.272       .  A
O115        C129   1.267       .  A
O116        C121   1.279       .  A
O117        C120   1.263       .  A
O118        C130   1.274       .  A
O119        C132   1.272       .  A
C120        O125   1.268       .  A
C120       C1097   1.483       .  S
C121        C905   1.489       .  S
O123        C126   1.267       .  A
O124        C126   1.267       .  A
C126        C929   1.490       .  S
O127        C132   1.277       .  A
O128        C130   1.272       .  A
C129        O131   1.267       .  A
C129       C1012   1.480       .  S
C130       C1073   1.489       .  S
C132       C1204   1.491       .  S
Fe133       O149   2.098       .  S
Fe133       O139   2.056       .  S
Fe133       O146   2.084       .  S
Fe133       O138   2.105       .  S
Fe133       O144   1.972       .  S
Fe134       O137   2.043       .  S
Fe134       O141   2.064       .  S
Fe134       O145   2.054       .  S
Fe134       O150   2.060       .  S
Fe134       O144   1.968       .  S
Fe135       O153   2.065       .  S
Fe135       O140   2.069       .  S
Fe135       O147   2.072       .  S
Fe135       O136   2.059       .  S
Fe135       O144   1.974       .  S
O136        C143   1.271       .  A
O137        C151   1.264       .  A
O138        C143   1.282       .  A
O139        C142   1.266       .  A
O140        C152   1.273       .  A
O141        C154   1.272       .  A
C142        O147   1.268       .  A
C142       C1433   1.485   1_565  S
C143        C857   1.494       .  S
O145        C148   1.264       .  A
O146        C148   1.269       .  A
C148        C977   1.492       .  S
O149        C154   1.279       .  A
O150        C152   1.271       .  A
C151        O153   1.267       .  A
C151        C881   1.478       .  S
C152       C1409   1.481       .  S
C154       C1324   1.494       .  S
Fe155       O171   2.083       .  S
Fe155       O161   2.101       .  S
Fe155       O168   2.090       .  S
Fe155       O160   2.050       .  S
Fe155       O166   1.977       .  S
Fe156       O159   2.061       .  S
Fe156       O163   2.049       .  S
Fe156       O167   2.060       .  S
Fe156       O172   2.045       .  S
Fe156       O166   1.976       .  S
Fe157       O175   2.072       .  S
Fe157       O162   2.072       .  S
Fe157       O169   2.068       .  S
Fe157       O158   2.071       .  S
Fe157       O166   1.977       .  S
O158        C165   1.266       .  A
O159        C173   1.269       .  A
O160        C165   1.264       .  A
O161        C164   1.282       .  A
O162        C174   1.270       .  A
O163        C176   1.263       .  A
C164        O169   1.275       .  A
C164        C833   1.496       .  S
C165       C1276   1.482       .  S
O167        C170   1.271       .  A
O168        C170   1.277       .  A
C170       C1385   1.486       .  S
O171        C176   1.269       .  A
O172        C174   1.265       .  A
C173        O175   1.272       .  A
C173       C1300   1.483       .  S
C174        C892   1.480       .  S
C176        C940   1.489       .  S
Fe177       O193   2.079       .  S
Fe177       O183   2.103       .  S
Fe177       O190   2.093       .  S
Fe177       O182   2.048       .  S
Fe177       O188   1.978       .  S
Fe178       O181   2.062       .  S
Fe178       O185   2.055       .  S
Fe178       O189   2.060       .  S
Fe178       O194   2.053       .  S
Fe178       O188   1.972       .  S
Fe179       O197   2.075       .  S
Fe179       O184   2.080       .  S
Fe179       O191   2.065       .  S
Fe179       O180   2.075       .  S
Fe179       O188   1.981       .  S
O180        C187   1.268       .  A
O181        C195   1.271       .  A
O182        C187   1.264       .  A
O183        C186   1.281       .  A
O184        C196   1.270       .  A
O185        C198   1.264       .  A
C186        O191   1.273       .  A
C186       C1372   1.496       .  S
C187        C737   1.479       .  S
O189        C192   1.272       .  A
O190        C192   1.278       .  A
C192        C713   1.489       .  S
O193        C198   1.267       .  A
O194        C196   1.265       .  A
C195        O197   1.273       .  A
C195        C761   1.483       .  S
C196        C809   1.488       .  S
C198        C796   1.491       .  S
Fe199       O215   2.107       .  S
Fe199       O205   2.039       .  S
Fe199       O212   2.068       .  S
Fe199       O204   2.113       .  S
Fe199       O210   1.972       .  S
Fe200       O203   2.059       .  S
Fe200       O207   2.049       .  S
Fe200       O211   2.063       .  S
Fe200       O216   2.057       .  S
Fe200       O210   1.967       .  S
Fe201       O219   2.071       .  S
Fe201       O206   2.086       .  S
Fe201       O213   2.086       .  S
Fe201       O202   2.056       .  S
Fe201       O210   1.976       .  S
O202        C209   1.271       .  A
O203        C217   1.266       .  A
O204        C209   1.282       .  A
O205        C208   1.262       .  A
O206        C218   1.276       .  A
O207        C220   1.271       .  A
C208        O213   1.270       .  A
C208        C641   1.480       .  S
C209       C1252   1.498       .  S
O211        C214   1.265       .  A
O212        C214   1.266       .  A
C214        C700   1.491       .  S
O215        C220   1.281       .  A
O216        C218   1.272       .  A
C217        O219   1.269       .  A
C217        C820   1.483       .  S
C218        C617   1.485       .  S
C220        C665   1.488       .  S
Fe221       O237   2.078       .  S
Fe221       O227   2.052       .  S
Fe221       O234   2.070       .  S
Fe221       O226   2.086       .  S
Fe221       O232   1.965       .  S
Fe222       O225   2.053       .  S
Fe222       O229   2.080       .  S
Fe222       O233   2.072       .  S
Fe222       O238   2.082       .  S
Fe222       O232   1.972       .  S
Fe223       O241   2.074       .  S
Fe223       O228   2.056       .  S
Fe223       O235   2.072       .  S
Fe223       O224   2.074       .  S
Fe223       O232   1.968       .  S
O224        C231   1.275       .  A
O225        C239   1.266       .  A
O226        C231   1.278       .  A
O227        C230   1.265       .  A
O228        C240   1.271       .  A
O229        C242   1.276       .  A
C230        O235   1.267       .  A
C230        C545   1.481       .  S
C231       C1132   1.492       .  S
O233        C236   1.267       .  A
O234        C236   1.267       .  A
C236        C785   1.492       .  S
O237        C242   1.276       .  A
O238        C240   1.275       .  A
C239        O241   1.270       .  A
C239        C593   1.482       .  S
C240        C521   1.483       .  S
C242        C580   1.490       .  S
Fe243       O259   2.078       .  S
Fe243       O249   2.088       .  S
Fe243       O256   2.082       .  S
Fe243       O248   2.045       .  S
Fe243       O254   1.971       .  S
Fe244       O247   2.048       .  S
Fe244       O251   2.061       .  S
Fe244       O255   2.059       .  S
Fe244       O260   2.056       .  S
Fe244       O254   1.968       .  S
Fe245       O263   2.080       .  S
Fe245       O250   2.073       .  S
Fe245       O257   2.068       .  S
Fe245       O246   2.087       .  S
Fe245       O254   1.980       .  S
O246        C253   1.269       .  A
O247        C261   1.267       .  A
O248        C253   1.263       .  A
O249        C252   1.279       .  A
O250        C262   1.271       .  A
O251        C264   1.265       .  A
C252        O257   1.274       .  A
C252       C1036   1.489       .  S
C253        C484   1.483       .  S
O255        C258   1.270       .  A
O256        C258   1.275       .  A
C258        C460   1.486       .  S
O259        C264   1.268       .  A
O260        C262   1.268       .  A
C261        O263   1.273       .  A
C261        C497   1.482       .  S
C262        C604   1.480       .  S
C264        C689   1.490       .  S
Fe265       O281   2.071       .  S
Fe265       O271   2.104       .  S
Fe265       O278   2.099       .  S
Fe265       O270   2.045       .  S
Fe265       O276   1.979       .  S
Fe266       O269   2.051       .  S
Fe266       O273   2.051       .  S
Fe266       O277   2.050       .  S
Fe266       O282   2.049       .  S
Fe266       O276   1.971       .  S
Fe267       O285   2.088       .  S
Fe267       O272   2.068       .  S
Fe267       O279   2.064       .  S
Fe267       O268   2.081       .  S
Fe267       O276   1.979       .  S
O268        C275   1.270       .  A
O269        C283   1.268       .  A
O270        C275   1.263       .  A
O271        C274   1.281       .  A
O272        C284   1.268       .  A
O273        C286   1.264       .  A
C274        O279   1.273       .  A
C274        C964   1.495       .  S
C275        C532   1.486       .  S
O277        C280   1.270       .  A
O278        C280   1.279       .  A
C280        C449   1.488       .  S
O281        C286   1.266       .  A
O282        C284   1.265       .  A
C283        O285   1.276       .  A
C283        C556   1.486       .  S
C284        C436   1.480       .  S
C286        C401   1.486       .  S
Fe287       O303   2.098       .  S
Fe287       O293   2.039       .  S
Fe287       O300   2.064       .  S
Fe287       O292   2.105       .  S
Fe287       O298   1.970       .  S
Fe288       O291   2.059       .  S
Fe288       O295   2.054       .  S
Fe288       O299   2.062       .  S
Fe288       O304   2.059       .  S
Fe288       O298   1.969       .  S
Fe289       O307   2.064       .  S
Fe289       O294   2.083       .  S
Fe289       O301   2.083       .  S
Fe289       O290   2.056       .  S
Fe289       O298   1.971       .  S
O290        C297   1.273       .  A
O291        C305   1.268       .  A
O292        C297   1.280       .  A
O293        C296   1.262       .  A
O294        C306   1.274       .  A
O295        C308   1.269       .  A
C296        O301   1.268       .  A
C296        C508   1.476       .  S
C297        C916   1.492       .  S
O299        C302   1.267       .  A
O300        C302   1.266       .  A
C302        C377   1.484       .  S
O303        C308   1.278       .  A
O304        C306   1.269       .  A
C305        O307   1.270       .  A
C305        C425   1.477       .  S
C306        C473   1.487       .  S
C308        C569   1.492       .  S
Fe309       O325   2.088       .  S
Fe309       O315   2.037       .  S
Fe309       O322   2.063       .  S
Fe309       O314   2.093       .  S
Fe309       O320   1.972       .  S
Fe310       O313   2.052       .  S
Fe310       O317   2.065       .  S
Fe310       O321   2.067       .  S
Fe310       O326   2.068       .  S
Fe310       O320   1.979       .  S
Fe311       O329   2.077       .  S
Fe311       O316   2.078       .  S
Fe311       O323   2.083       .  S
Fe311       O312   2.074       .  S
Fe311       O320   1.978       .  S
O312        C319   1.275       .  A
O313        C327   1.266       .  A
O314        C319   1.280       .  A
O315        C318   1.261       .  A
O316        C328   1.275       .  A
O317        C330   1.273       .  A
C318        O323   1.269       .  A
C318        C772   1.486       .  S
C319        C868   1.495       .  S
O321        C324   1.266       .  A
O322        C324   1.265       .  A
C324        C412   1.490       .  S
O325        C330   1.277       .  A
O326        C328   1.273       .  A
C327        O329   1.270       .  A
C327        C364   1.485       .  S
C328        C748   1.488       .  S
C330        C676   1.485       .  S
Fe331       O347   2.072       .  S
Fe331       O337   2.107       .  S
Fe331       O344   2.105       .  S
Fe331       O336   2.046       .  S
Fe331       O342   1.975       .  S
Fe332       O335   2.060       .  S
Fe332       O339   2.052       .  S
Fe332       O343   2.056       .  S
Fe332       O348   2.054       .  S
Fe332       O342   1.968       .  S
Fe333       O351   2.074       .  S
Fe333       O338   2.073       .  S
Fe333       O345   2.053       .  S
Fe333       O334   2.080       .  S
Fe333       O342   1.975       .  S
O334        C341   1.268       .  A
O335        C349   1.270       .  A
O336        C341   1.263       .  A
O337        C340   1.282       .  A
O338        C350   1.269       .  A
O339        C352   1.262       .  A
C340        O345   1.272       .  A
C340        C844   1.493       .  S
C341        C628   1.481       .  S
O343        C346   1.273       .  A
O344        C346   1.281       .  A
C346        C724   1.491       .  S
O347        C352   1.265       .  A
O348        C350   1.266       .  A
C349        O351   1.273       .  A
C349        C652   1.481       .  S
C350        C353   1.483       .  S
C352        C388   1.488       .  S
C353        C354   1.405       .  A
C353        C358   1.408       .  A
C354        C355   1.402       .  A
C354        H367   1.083       .  S
C355        C356   1.406       .  A
C355        H368   1.084       .  S
C356        C357   1.404       .  A
C356        C359   1.485       .  S
C357        C358   1.395       .  A
C357        H369   1.081       .  S
C358        H370   1.083       .  S
C359        C360   1.351       .  D
C359        H371   1.085       .  S
C360        C361   1.488   1_554  S
C360        H372   1.086       .  S
C361        C362   1.407       .  A
C361        C366   1.405       .  A
C362        C363   1.403       .  A
C362        H373   1.084       .  S
C363        C364   1.405       .  A
C363        H374   1.083       .  S
C364        C365   1.408       .  A
C365        C366   1.394       .  A
C365        H375   1.084       .  S
C366        H376   1.080       .  S
C377        C378   1.406       .  A
C377        C382   1.405       .  A
C378        C379   1.401       .  A
C378        H391   1.083       .  S
C379        C380   1.405       .  A
C379        H392   1.083       .  S
C380        C381   1.410       .  A
C380        C383   1.495       .  S
C381        C382   1.397       .  A
C381        H393   1.080       .  S
C382        H394   1.083       .  S
C383        C384   1.351   1_455  D
C383        H395   1.084       .  S
C384        C385   1.491       .  S
C384        H396   1.083   1_655  S
C385        C386   1.404       .  A
C385        C390   1.410       .  A
C386        C387   1.396       .  A
C386        H397   1.084       .  S
C387        C388   1.406       .  A
C387        H398   1.083       .  S
C388        C389   1.407       .  A
C389        C390   1.403       .  A
C389        H399   1.083       .  S
C390        H400   1.080       .  S
C401        C402   1.405       .  A
C401        C406   1.407       .  A
C402        C403   1.397       .  A
C402        H415   1.083       .  S
C403        C404   1.405       .  A
C403        H416   1.083       .  S
C404        C405   1.411       .  A
C404        C407   1.496       .  S
C405        C406   1.403       .  A
C405        H417   1.080       .  S
C406        H418   1.083       .  S
C407        C408   1.350       .  D
C407        H419   1.083       .  S
C408        C409   1.496       .  S
C408        H420   1.083       .  S
C409        C410   1.405       .  A
C409        C414   1.411       .  A
C410        C411   1.400       .  A
C410        H421   1.084       .  S
C411        C412   1.407       .  A
C411        H422   1.083       .  S
C412        C413   1.407       .  A
C413        C414   1.401       .  A
C413        H423   1.083       .  S
C414        H424   1.080       .  S
C425        C426   1.404       .  A
C425        C430   1.407       .  A
C426        C427   1.398       .  A
C426        H439   1.083       .  S
C427        C428   1.403       .  A
C427        H440   1.083       .  S
C428        C429   1.404       .  A
C428        C431   1.480       .  S
C429        C430   1.395       .  A
C429        H441   1.082       .  S
C430        H442   1.083       .  S
C431        C432   1.348       .  D
C431        H443   1.085       .  S
C432        C433   1.482   1_554  S
C432        H444   1.085       .  S
C433        C434   1.404       .  A
C433        C438   1.405       .  A
C434        C435   1.400       .  A
C434        H445   1.083       .  S
C435        C436   1.406       .  A
C435        H446   1.083       .  S
C436        C437   1.407       .  A
C437        C438   1.393       .  A
C437        H447   1.083       .  S
C438        H448   1.082       .  S
C449        C450   1.408       .  A
C449        C454   1.405       .  A
C450        C451   1.395       .  A
C450        H463   1.083       .  S
C451        C452   1.401       .  A
C451        H464   1.084       .  S
C452        C453   1.412       .  A
C452        C455   1.491   1_556  S
C453        C454   1.405       .  A
C453        H465   1.081   1_565  S
C454        H466   1.083       .  S
C455        C456   1.346   1_565  D
C455        H467   1.085       .  S
C456        C457   1.491       .  S
C456        H468   1.085   1_554  S
C457        C458   1.401       .  A
C457        C462   1.411       .  A
C458        C459   1.396       .  A
C458        H469   1.083       .  S
C459        C460   1.408       .  A
C459        H470   1.083       .  S
C460        C461   1.406       .  A
C461        C462   1.403       .  A
C461        H471   1.083       .  S
C462        H472   1.081   1_545  S
C473        C474   1.409       .  A
C473        C478   1.406       .  A
C474        C475   1.404       .  A
C474        H487   1.083       .  S
C475        C476   1.404       .  A
C475        H488   1.083       .  S
C476        C477   1.407       .  A
C476        C479   1.491       .  S
C477        C478   1.396       .  A
C477        H489   1.082       .  S
C478        H490   1.083       .  S
C479        C480   1.349       .  D
C479        H491   1.084       .  S
C480        C481   1.489       .  S
C480        H492   1.086       .  S
C481        C482   1.402       .  A
C481        C486   1.411       .  A
C482        C483   1.392       .  A
C482        H493   1.083       .  S
C483        C484   1.405   1_565  A
C483        H494   1.084       .  S
C484        C485   1.406       .  A
C485        C486   1.408   1_545  A
C485        H495   1.083       .  S
C486        H496   1.082       .  S
C497        C498   1.409       .  A
C497        C502   1.405       .  A
C498        C499   1.398       .  A
C498        H511   1.083       .  S
C499        C500   1.400       .  A
C499        H512   1.083       .  S
C500        C501   1.408       .  A
C500        C503   1.483       .  S
C501        C502   1.398       .  A
C501        H513   1.083       .  S
C502        H514   1.083       .  S
C503        C504   1.347       .  D
C503        H515   1.083       .  S
C504        C505   1.489       .  S
C504        H516   1.087       .  S
C505        C506   1.403       .  A
C505        C510   1.411       .  A
C506        C507   1.393       .  A
C506        H517   1.084       .  S
C507        C508   1.403       .  A
C507        H518   1.083       .  S
C508        C509   1.404       .  A
C509        C510   1.403       .  A
C509        H519   1.083       .  S
C510        H520   1.079       .  S
C521        C522   1.407       .  A
C521        C526   1.406       .  A
C522        C523   1.396       .  A
C522        H535   1.082       .  S
C523        C524   1.403       .  A
C523        H536   1.085       .  S
C524        C525   1.409       .  A
C524        C527   1.487       .  S
C525        C526   1.401       .  A
C525        H537   1.081       .  S
C526        H538   1.082       .  S
C527        C528   1.349       .  D
C527        H539   1.088       .  S
C528        C529   1.485       .  S
C528        H540   1.085       .  S
C529        C530   1.404       .  A
C529        C534   1.404       .  A
C530        C531   1.402       .  A
C530        H541   1.084       .  S
C531        C532   1.406   1_545  A
C531        H542   1.082   1_545  S
C532        C533   1.409   1_565  A
C533        C534   1.395       .  A
C533        H543   1.083       .  S
C534        H544   1.082       .  S
C545        C546   1.407       .  A
C545        C550   1.404       .  A
C546        C547   1.406       .  A
C546        H559   1.083       .  S
C547        C548   1.406       .  A
C547        H560   1.083       .  S
C548        C549   1.404       .  A
C548        C551   1.487       .  S
C549        C550   1.390       .  A
C549        H561   1.082       .  S
C550        H562   1.083       .  S
C551        C552   1.351       .  D
C551        H563   1.085       .  S
C552        C553   1.486       .  S
C552        H564   1.087       .  S
C553        C554   1.405       .  A
C553        C558   1.405       .  A
C554        C555   1.398       .  A
C554        H565   1.084       .  S
C555        C556   1.404       .  A
C555        H566   1.082       .  S
C556        C557   1.410       .  A
C557        C558   1.399       .  A
C557        H567   1.083       .  S
C558        H568   1.081       .  S
C569        C570   1.406       .  A
C569        C574   1.410       .  A
C570        C571   1.403       .  A
C570        H583   1.083       .  S
C571        C572   1.407       .  A
C571        H584   1.083       .  S
C572        C573   1.407       .  A
C572        C575   1.495       .  S
C573        C574   1.400       .  A
C573        H585   1.081       .  S
C574        H586   1.084       .  S
C575        C576   1.354   1_554  D
C575        H587   1.083       .  S
C576        C577   1.498       .  S
C576        H588   1.085       .  S
C577        C578   1.407       .  A
C577        C582   1.409       .  A
C578        C579   1.402       .  A
C578        H589   1.083       .  S
C579        C580   1.406       .  A
C579        H590   1.083       .  S
C580        C581   1.408       .  A
C581        C582   1.402       .  A
C581        H591   1.083       .  S
C582        H592   1.080       .  S
C593        C594   1.408       .  A
C593        C598   1.405       .  A
C594        C595   1.398       .  A
C594        H607   1.083       .  S
C595        C596   1.402       .  A
C595        H608   1.084   1_556  S
C596        C597   1.408       .  A
C596        C599   1.485   1_556  S
C597        C598   1.399       .  A
C597        H609   1.081       .  S
C598        H610   1.083       .  S
C599        C600   1.348       .  D
C599        H611   1.086       .  S
C600        C601   1.484       .  S
C600        H612   1.086   1_554  S
C601        C602   1.402       .  A
C601        C606   1.408       .  A
C602        C603   1.397       .  A
C602        H613   1.084       .  S
C603        C604   1.406       .  A
C603        H614   1.083       .  S
C604        C605   1.405       .  A
C605        C606   1.400       .  A
C605        H615   1.083       .  S
C606        H616   1.081       .  S
C617        C618   1.408       .  A
C617        C622   1.406       .  A
C618        C619   1.401       .  A
C618        H631   1.083       .  S
C619        C620   1.402       .  A
C619        H632   1.083       .  S
C620        C621   1.407       .  A
C620        C623   1.487       .  S
C621        C622   1.397       .  A
C621        H633   1.082       .  S
C622        H634   1.083       .  S
C623        C624   1.348       .  D
C623        H635   1.084       .  S
C624        C625   1.490       .  S
C624        H636   1.087       .  S
C625        C626   1.403       .  A
C625        C630   1.411       .  A
C626        C627   1.394       .  A
C626        H637   1.084       .  S
C627        C628   1.404       .  A
C627        H638   1.083       .  S
C628        C629   1.406       .  A
C629        C630   1.406       .  A
C629        H639   1.083       .  S
C630        H640   1.081       .  S
C641        C642   1.406   1_545  A
C641        C646   1.405   1_545  A
C642        C643   1.393       .  A
C642        H655   1.084       .  S
C643        C644   1.401       .  A
C643        H656   1.083       .  S
C644        C645   1.409       .  A
C644        C647   1.483       .  S
C645        C646   1.403       .  A
C645        H657   1.082       .  S
C646        H658   1.083   1_565  S
C647        C648   1.348       .  D
C647        H659   1.087       .  S
C648        C649   1.484       .  S
C648        H660   1.085       .  S
C649        C650   1.403       .  A
C649        C654   1.405       .  A
C650        C651   1.401       .  A
C650        H661   1.084       .  S
C651        C652   1.407       .  A
C651        H662   1.082       .  S
C652        C653   1.406       .  A
C653        C654   1.393       .  A
C653        H663   1.083       .  S
C654        H664   1.083       .  S
C665        C666   1.405       .  A
C665        C670   1.409       .  A
C666        C667   1.403   1_545  A
C666        H679   1.083       .  S
C667        C668   1.407   1_565  A
C667        H680   1.083       .  S
C668        C669   1.406       .  A
C668        C671   1.492   1_545  S
C669        C670   1.398       .  A
C669        H681   1.082       .  S
C670        H682   1.083       .  S
C671        C672   1.352   1_564  D
C671        H683   1.085       .  S
C672        C673   1.494   1_545  S
C672        H684   1.086       .  S
C673        C674   1.406   1_565  A
C673        C678   1.408       .  A
C674        C675   1.401   1_545  A
C674        H685   1.084       .  S
C675        C676   1.405       .  A
C675        H686   1.083   1_565  S
C676        C677   1.406       .  A
C677        C678   1.401       .  A
C677        H687   1.084       .  S
C678        H688   1.080       .  S
C689        C690   1.406       .  A
C689        C694   1.406       .  A
C690        C691   1.401       .  A
C690        H703   1.083       .  S
C691        C692   1.406       .  A
C691        H704   1.083       .  S
C692        C693   1.411       .  A
C692        C695   1.498       .  S
C693        C694   1.402       .  A
C693        H705   1.079       .  S
C694        H706   1.083       .  S
C695        C696   1.352       .  D
C695        H707   1.084       .  S
C696        C697   1.497       .  S
C696        H708   1.084       .  S
C697        C698   1.406       .  A
C697        C702   1.410       .  A
C698        C699   1.401       .  A
C698        H709   1.084       .  S
C699        C700   1.406       .  A
C699        H710   1.082       .  S
C700        C701   1.408       .  A
C701        C702   1.402       .  A
C701        H711   1.083       .  S
C702        H712   1.080       .  S
C713        C714   1.407       .  A
C713        C718   1.405       .  A
C714        C715   1.399       .  A
C714        H727   1.083       .  S
C715        C716   1.404       .  A
C715        H728   1.083       .  S
C716        C717   1.413       .  A
C716        C719   1.500   1_556  S
C717        C718   1.403       .  A
C717        H729   1.079       .  S
C718        H730   1.083       .  S
C719        C720   1.349       .  D
C719        H731   1.085       .  S
C720        C721   1.492       .  S
C720        H732   1.082   1_554  S
C721        C722   1.401       .  A
C721        C726   1.411       .  A
C722        C723   1.395       .  A
C722        H733   1.084       .  S
C723        C724   1.408       .  A
C723        H734   1.082       .  S
C724        C725   1.408       .  A
C725        C726   1.408       .  A
C725        H735   1.083       .  S
C726        H736   1.081       .  S
C737        C738   1.403       .  A
C737        C742   1.405       .  A
C738        C739   1.394       .  A
C738        H751   1.084       .  S
C739        C740   1.404       .  A
C739        H752   1.083       .  S
C740        C741   1.411       .  A
C740        C743   1.491       .  S
C741        C742   1.403       .  A
C741        H753   1.080       .  S
C742        H754   1.083       .  S
C743        C744   1.349       .  D
C743        H755   1.086       .  S
C744        C745   1.488       .  S
C744        H756   1.083       .  S
C745        C746   1.403       .  A
C745        C750   1.406       .  A
C746        C747   1.402       .  A
C746        H757   1.083       .  S
C747        C748   1.408       .  A
C747        H758   1.083       .  S
C748        C749   1.407       .  A
C749        C750   1.397       .  A
C749        H759   1.083       .  S
C750        H760   1.082       .  S
C761        C762   1.406       .  A
C761        C766   1.407       .  A
C762        C763   1.397       .  A
C762        H775   1.083       .  S
C763        C764   1.404       .  A
C763        H776   1.084       .  S
C764        C765   1.407       .  A
C764        C767   1.488       .  S
C765        C766   1.400       .  A
C765        H777   1.081       .  S
C766        H778   1.083       .  S
C767        C768   1.351       .  D
C767        H779   1.086       .  S
C768        C769   1.487       .  S
C768        H780   1.085       .  S
C769        C770   1.406       .  A
C769        C774   1.404       .  A
C770        C771   1.404   1_545  A
C770        H781   1.084       .  S
C771        C772   1.406       .  A
C771        H782   1.082       .  S
C772        C773   1.409   1_565  A
C773        C774   1.394       .  A
C773        H783   1.083       .  S
C774        H784   1.082       .  S
C785        C786   1.408       .  A
C785        C790   1.407       .  A
C786        C787   1.401       .  A
C786        H799   1.083       .  S
C787        C788   1.404       .  A
C787        H800   1.083       .  S
C788        C789   1.410       .  A
C788        C791   1.497       .  S
C789        C790   1.403       .  A
C789        H801   1.081       .  S
C790        H802   1.083       .  S
C791        C792   1.351   1_455  D
C791        H803   1.082       .  S
C792        C793   1.499       .  S
C792        H804   1.084       .  S
C793        C794   1.404       .  A
C793        C798   1.412       .  A
C794        C795   1.397       .  A
C794        H805   1.083       .  S
C795        C796   1.406       .  A
C795        H806   1.083       .  S
C796        C797   1.408       .  A
C797        C798   1.406       .  A
C797        H807   1.083       .  S
C798        H808   1.080       .  S
C809        C810   1.405       .  A
C809        C814   1.407       .  A
C810        C811   1.404       .  A
C810        H823   1.082       .  S
C811        C812   1.408       .  A
C811        H824   1.084       .  S
C812        C813   1.407       .  A
C812        C815   1.495   1_556  S
C813        C814   1.395       .  A
C813        H825   1.079       .  S
C814        H826   1.083       .  S
C815        C816   1.354       .  D
C815        H827   1.085       .  S
C816        C817   1.488       .  S
C816        H828   1.082       .  S
C817        C818   1.406       .  A
C817        C822   1.405       .  A
C818        C819   1.402       .  A
C818        H829   1.084       .  S
C819        C820   1.405       .  A
C819        H830   1.083       .  S
C820        C821   1.407       .  A
C821        C822   1.397       .  A
C821        H831   1.083       .  S
C822        H832   1.082       .  S
C833        C834   1.407       .  A
C833        C838   1.411       .  A
C834        C835   1.406       .  A
C834        H847   1.083       .  S
C835        C836   1.408       .  A
C835        H848   1.083       .  S
C836        C837   1.404       .  A
C836        C839   1.494       .  S
C837        C838   1.399       .  A
C837        H849   1.082       .  S
C838        H850   1.083       .  S
C839        C840   1.354       .  D
C839        H851   1.086       .  S
C840        C841   1.494       .  S
C840        H852   1.085       .  S
C841        C842   1.409       .  A
C841        C846   1.403       .  A
C842        C843   1.408       .  A
C842        H853   1.083       .  S
C843        C844   1.407       .  A
C843        H854   1.083       .  S
C844        C845   1.410       .  A
C845        C846   1.395       .  A
C845        H855   1.083       .  S
C846        H856   1.082       .  S
C857        C858   1.404       .  A
C857        C862   1.412       .  A
C858        C859   1.407       .  A
C858        H871   1.083       .  S
C859        C860   1.410       .  A
C859        H872   1.083       .  S
C860        C861   1.405       .  A
C860        C863   1.498       .  S
C861        C862   1.398       .  A
C861        H873   1.081       .  S
C862        H874   1.083       .  S
C863        C864   1.356       .  D
C863        H875   1.084       .  S
C864        C865   1.498       .  S
C864        H876   1.084       .  S
C865        C866   1.408       .  A
C865        C870   1.406       .  A
C866        C867   1.406       .  A
C866        H877   1.083       .  S
C867        C868   1.407       .  A
C867        H878   1.083       .  S
C868        C869   1.410       .  A
C869        C870   1.400       .  A
C869        H879   1.082       .  S
C870        H880   1.082       .  S
C881        C882   1.406       .  A
C881        C886   1.406       .  A
C882        C883   1.399       .  A
C882        H895   1.083       .  S
C883        C884   1.404       .  A
C883        H896   1.083       .  S
C884        C885   1.404       .  A
C884        C887   1.481       .  S
C885        C886   1.392       .  A
C885        H897   1.081       .  S
C886        H898   1.083       .  S
C887        C888   1.349       .  D
C887        H899   1.084       .  S
C888        C889   1.482       .  S
C888        H900   1.085       .  S
C889        C890   1.405       .  A
C889        C894   1.404       .  A
C890        C891   1.399       .  A
C890        H901   1.083       .  S
C891        C892   1.404       .  A
C891        H902   1.083       .  S
C892        C893   1.407       .  A
C893        C894   1.393       .  A
C893        H903   1.083       .  S
C894        H904   1.081       .  S
C905        C906   1.405       .  A
C905        C910   1.410       .  A
C906        C907   1.405       .  A
C906        H919   1.083       .  S
C907        C908   1.408       .  A
C907        H920   1.083       .  S
C908        C909   1.404       .  A
C908        C911   1.492       .  S
C909        C910   1.398       .  A
C909        H921   1.082       .  S
C910        H922   1.083       .  S
C911        C912   1.354       .  D
C911        H923   1.084       .  S
C912        C913   1.495       .  S
C912        H924   1.085       .  S
C913        C914   1.409       .  A
C913        C918   1.405       .  A
C914        C915   1.406       .  A
C914        H925   1.083       .  S
C915        C916   1.406       .  A
C915        H926   1.083       .  S
C916        C917   1.409       .  A
C917        C918   1.397       .  A
C917        H927   1.084       .  S
C918        H928   1.081       .  S
C929        C930   1.407       .  A
C929        C934   1.407       .  A
C930        C931   1.400       .  A
C930        H943   1.083       .  S
C931        C932   1.405       .  A
C931        H944   1.083       .  S
C932        C933   1.410       .  A
C932        C935   1.496       .  S
C933        C934   1.402       .  A
C933        H945   1.080       .  S
C934        H946   1.083       .  S
C935        C936   1.351       .  D
C935        H947   1.082       .  S
C936        C937   1.498       .  S
C936        H948   1.084       .  S
C937        C938   1.405       .  A
C937        C942   1.412       .  A
C938        C939   1.398       .  A
C938        H949   1.083       .  S
C939        C940   1.407       .  A
C939        H950   1.083       .  S
C940        C941   1.406       .  A
C941        C942   1.404       .  A
C941        H951   1.083       .  S
C942        H952   1.080       .  S
C953        C954   1.407       .  A
C953        C958   1.410       .  A
C954        C955   1.408       .  A
C954        H967   1.082       .  S
C955        C956   1.408       .  A
C955        H968   1.084       .  S
C956        C957   1.404       .  A
C956        C959   1.496       .  S
C957        C958   1.398       .  A
C957        H969   1.082       .  S
C958        H970   1.083       .  S
C959        C960   1.354       .  D
C959        H971   1.086       .  S
C960        C961   1.496       .  S
C960        H972   1.086       .  S
C961        C962   1.409       .  A
C961        C966   1.405       .  A
C962        C963   1.407       .  A
C962        H973   1.084       .  S
C963        C964   1.405       .  A
C963        H974   1.082       .  S
C964        C965   1.412       .  A
C965        C966   1.400       .  A
C965        H975   1.083       .  S
C966        H976   1.082       .  S
C977        C978   1.407       .  A
C977        C982   1.408       .  A
C978        C979   1.398       .  A
C978        H991   1.082       .  S
C979        C980   1.404       .  A
C979        H992   1.084       .  S
C980        C981   1.411       .  A
C980        C983   1.497       .  S
C981        C982   1.406       .  A
C981        H993   1.080       .  S
C982        H994   1.083       .  S
C983        C984   1.352   1_655  D
C983        H995   1.082       .  S
C984        C985   1.501       .  S
C984        H996   1.084       .  S
C985        C986   1.406       .  A
C985        C990   1.412       .  A
C986        C987   1.401       .  A
C986        H997   1.083       .  S
C987        C988   1.407       .  A
C987        H998   1.084       .  S
C988        C989   1.406       .  A
C989        C990   1.402       .  A
C989        H999   1.082       .  S
C990       H1000   1.079       .  S
C1001      C1002   1.405       .  A
C1001      C1006   1.407       .  A
C1002      C1003   1.399       .  A
C1002      H1015   1.083       .  S
C1003      C1004   1.404       .  A
C1003      H1016   1.083       .  S
C1004      C1005   1.405       .  A
C1004      C1007   1.483       .  S
C1005      C1006   1.395       .  A
C1005      H1017   1.082       .  S
C1006      H1018   1.083       .  S
C1007      C1008   1.348       .  D
C1007      H1019   1.085       .  S
C1008      C1009   1.483       .  S
C1008      H1020   1.085       .  S
C1009      C1010   1.403       .  A
C1009      C1014   1.406       .  A
C1010      C1011   1.398       .  A
C1010      H1021   1.083       .  S
C1011      C1012   1.406       .  A
C1011      H1022   1.083       .  S
C1012      C1013   1.406       .  A
C1013      C1014   1.395       .  A
C1013      H1023   1.083       .  S
C1014      H1024   1.081       .  S
C1025      C1026   1.407       .  A
C1025      C1030   1.409       .  A
C1026      C1027   1.406       .  A
C1026      H1039   1.083       .  S
C1027      C1028   1.408       .  A
C1027      H1040   1.083       .  S
C1028      C1029   1.404       .  A
C1028      C1031   1.491       .  S
C1029      C1030   1.395       .  A
C1029      H1041   1.082       .  S
C1030      H1042   1.083       .  S
C1031      C1032   1.353       .  D
C1031      H1043   1.085       .  S
C1032      C1033   1.489       .  S
C1032      H1044   1.085       .  S
C1033      C1034   1.406       .  A
C1033      C1038   1.404       .  A
C1034      C1035   1.403       .  A
C1034      H1045   1.083       .  S
C1035      C1036   1.406       .  A
C1035      H1046   1.083       .  S
C1036      C1037   1.410       .  A
C1037      C1038   1.397       .  A
C1037      H1047   1.083       .  S
C1038      H1048   1.082       .  S
C1049      C1050   1.409       .  A
C1049      C1054   1.408       .  A
C1050      C1051   1.399       .  A
C1050      H1063   1.083       .  S
C1051      C1052   1.403       .  A
C1051      H1064   1.083       .  S
C1052      C1053   1.412       .  A
C1052      C1055   1.498       .  S
C1053      C1054   1.408       .  A
C1053      H1065   1.082   1_545  S
C1054      H1066   1.083       .  S
C1055      C1056   1.350   1_545  D
C1055      H1067   1.085       .  S
C1056      C1057   1.500       .  S
C1056      H1068   1.085       .  S
C1057      C1058   1.404       .  A
C1057      C1062   1.412       .  A
C1058      C1059   1.401       .  A
C1058      H1069   1.083       .  S
C1059      C1060   1.409       .  A
C1059      H1070   1.083       .  S
C1060      C1061   1.407       .  A
C1061      C1062   1.407       .  A
C1061      H1071   1.083   1_565  S
C1062      H1072   1.081   1_565  S
C1073      C1074   1.409       .  A
C1073      C1078   1.407       .  A
C1074      C1075   1.403       .  A
C1074      H1087   1.082       .  S
C1075      C1076   1.404       .  A
C1075      H1088   1.083       .  S
C1076      C1077   1.407       .  A
C1076      C1079   1.491       .  S
C1077      C1078   1.398       .  A
C1077      H1089   1.082       .  S
C1078      H1090   1.083       .  S
C1079      C1080   1.349       .  D
C1079      H1091   1.084       .  S
C1080      C1081   1.493       .  S
C1080      H1092   1.087       .  S
C1081      C1082   1.403       .  A
C1081      C1086   1.412       .  A
C1082      C1083   1.393       .  A
C1082      H1093   1.083       .  S
C1083      C1084   1.405   1_565  A
C1083      H1094   1.084       .  S
C1084      C1085   1.406       .  A
C1085      C1086   1.408   1_545  A
C1085      H1095   1.083       .  S
C1086      H1096   1.081       .  S
C1097      C1098   1.407       .  A
C1097      C1102   1.406       .  A
C1098      C1099   1.404       .  A
C1098      H1111   1.083       .  S
C1099      C1100   1.405       .  A
C1099      H1112   1.083       .  S
C1100      C1101   1.405       .  A
C1100      C1103   1.487       .  S
C1101      C1102   1.394       .  A
C1101      H1113   1.083       .  S
C1102      H1114   1.083       .  S
C1103      C1104   1.351       .  D
C1103      H1115   1.084       .  S
C1104      C1105   1.492       .  S
C1104      H1116   1.087       .  S
C1105      C1106   1.406       .  A
C1105      C1110   1.408       .  A
C1106      C1107   1.399       .  A
C1106      H1117   1.083       .  S
C1107      C1108   1.403       .  A
C1107      H1118   1.083       .  S
C1108      C1109   1.408       .  A
C1109      C1110   1.401       .  A
C1109      H1119   1.082       .  S
C1110      H1120   1.081       .  S
C1121      C1122   1.406       .  A
C1121      C1126   1.410       .  A
C1122      C1123   1.406       .  A
C1122      H1135   1.083       .  S
C1123      C1124   1.407       .  A
C1123      H1136   1.083       .  S
C1124      C1125   1.404       .  A
C1124      C1127   1.491       .  S
C1125      C1126   1.399       .  A
C1125      H1137   1.083       .  S
C1126      H1138   1.083       .  S
C1127      C1128   1.353       .  D
C1127      H1139   1.085       .  S
C1128      C1129   1.493       .  S
C1128      H1140   1.086       .  S
C1129      C1130   1.408       .  A
C1129      C1134   1.404       .  A
C1130      C1131   1.407       .  A
C1130      H1141   1.083       .  S
C1131      C1132   1.407       .  A
C1131      H1142   1.083       .  S
C1132      C1133   1.409       .  A
C1133      C1134   1.397       .  A
C1133      H1143   1.083       .  S
C1134      H1144   1.082       .  S
C1145      C1146   1.408       .  A
C1145      C1150   1.406   1_565  A
C1146      C1147   1.404   1_565  A
C1146      H1159   1.083       .  S
C1147      C1148   1.404       .  A
C1147      H1160   1.083       .  S
C1148      C1149   1.404       .  A
C1148      C1151   1.483       .  S
C1149      C1150   1.392       .  A
C1149      H1161   1.083       .  S
C1150      H1162   1.083       .  S
C1151      C1152   1.350       .  D
C1151      H1163   1.083       .  S
C1152      C1153   1.488       .  S
C1152      H1164   1.087       .  S
C1153      C1154   1.406       .  A
C1153      C1158   1.407       .  A
C1154      C1155   1.398       .  A
C1154      H1165   1.083       .  S
C1155      C1156   1.403       .  A
C1155      H1166   1.084       .  S
C1156      C1157   1.407       .  A
C1157      C1158   1.397       .  A
C1157      H1167   1.082       .  S
C1158      H1168   1.080       .  S
C1169      C1170   1.405       .  A
C1169      C1174   1.406       .  A
C1170      C1171   1.399       .  A
C1170      H1183   1.083       .  S
C1171      C1172   1.406       .  A
C1171      H1184   1.084       .  S
C1172      C1173   1.409       .  A
C1172      C1175   1.494       .  S
C1173      C1174   1.402       .  A
C1173      H1185   1.078       .  S
C1174      H1186   1.083       .  S
C1175      C1176   1.352       .  D
C1175      H1187   1.087       .  S
C1176      C1177   1.489       .  S
C1176      H1188   1.083       .  S
C1177      C1178   1.405       .  A
C1177      C1182   1.405       .  A
C1178      C1179   1.405       .  A
C1178      H1189   1.084       .  S
C1179      C1180   1.407       .  A
C1179      H1190   1.083       .  S
C1180      C1181   1.409       .  A
C1181      C1182   1.396       .  A
C1181      H1191   1.083       .  S
C1182      H1192   1.083       .  S
C1193      C1194   1.404       .  A
C1193      C1198   1.410       .  A
C1194      C1195   1.401       .  A
C1194      H1207   1.083       .  S
C1195      C1196   1.408       .  A
C1195      H1208   1.083       .  S
C1196      C1197   1.407       .  A
C1196      C1199   1.496       .  S
C1197      C1198   1.401       .  A
C1197      H1209   1.080       .  S
C1198      H1210   1.083       .  S
C1199      C1200   1.355       .  D
C1199      H1211   1.081       .  S
C1200      C1201   1.500       .  S
C1200      H1212   1.083       .  S
C1201      C1202   1.408       .  A
C1201      C1206   1.409       .  A
C1202      C1203   1.404       .  A
C1202      H1213   1.083       .  S
C1203      C1204   1.406       .  A
C1203      H1214   1.083       .  S
C1204      C1205   1.407       .  A
C1205      C1206   1.398       .  A
C1205      H1215   1.083       .  S
C1206      H1216   1.079       .  S
C1217      C1218   1.404       .  A
C1217      C1222   1.407       .  A
C1218      C1219   1.401       .  A
C1218      H1231   1.083       .  S
C1219      C1220   1.407       .  A
C1219      H1232   1.083       .  S
C1220      C1221   1.405       .  A
C1220      C1223   1.487       .  S
C1221      C1222   1.394       .  A
C1221      H1233   1.081       .  S
C1222      H1234   1.083       .  S
C1223      C1224   1.351       .  D
C1223      H1235   1.085       .  S
C1224      C1225   1.485       .  S
C1224      H1236   1.084       .  S
C1225      C1226   1.405       .  A
C1225      C1230   1.404       .  A
C1226      C1227   1.402       .  A
C1226      H1237   1.083       .  S
C1227      C1228   1.405       .  A
C1227      H1238   1.083       .  S
C1228      C1229   1.407       .  A
C1229      C1230   1.395       .  A
C1229      H1239   1.083       .  S
C1230      H1240   1.082       .  S
C1241      C1242   1.407       .  A
C1241      C1246   1.411       .  A
C1242      C1243   1.409       .  A
C1242      H1255   1.083       .  S
C1243      C1244   1.410       .  A
C1243      H1256   1.083       .  S
C1244      C1245   1.405       .  A
C1244      C1247   1.500       .  S
C1245      C1246   1.399       .  A
C1245      H1257   1.082       .  S
C1246      H1258   1.082       .  S
C1247      C1248   1.357       .  D
C1247      H1259   1.085       .  S
C1248      C1249   1.499       .  S
C1248      H1260   1.085       .  S
C1249      C1250   1.410       .  A
C1249      C1254   1.404       .  A
C1250      C1251   1.408       .  A
C1250      H1261   1.083       .  S
C1251      C1252   1.406       .  A
C1251      H1262   1.083       .  S
C1252      C1253   1.412       .  A
C1253      C1254   1.400       .  A
C1253      H1263   1.082       .  S
C1254      H1264   1.082       .  S
C1265      C1266   1.404       .  A
C1265      C1270   1.407       .  A
C1266      C1267   1.396       .  A
C1266      H1279   1.084       .  S
C1267      C1268   1.405       .  A
C1267      H1280   1.083       .  S
C1268      C1269   1.409       .  A
C1268      C1271   1.490       .  S
C1269      C1270   1.401       .  A
C1269      H1281   1.080       .  S
C1270      H1282   1.082       .  S
C1271      C1272   1.350       .  D
C1271      H1283   1.086       .  S
C1272      C1273   1.487       .  S
C1272      H1284   1.083       .  S
C1273      C1274   1.404       .  A
C1273      C1278   1.406       .  A
C1274      C1275   1.403       .  A
C1274      H1285   1.084       .  S
C1275      C1276   1.407       .  A
C1275      H1286   1.082       .  S
C1276      C1277   1.405       .  A
C1277      C1278   1.394       .  A
C1277      H1287   1.083       .  S
C1278      H1288   1.082       .  S
C1289      C1290   1.402   1_545  A
C1289      C1294   1.404       .  A
C1290      C1291   1.393       .  A
C1290      H1303   1.083       .  S
C1291      C1292   1.403       .  A
C1291      H1304   1.084       .  S
C1292      C1293   1.409       .  A
C1292      C1295   1.484       .  S
C1293      C1294   1.402   1_565  A
C1293      H1305   1.081       .  S
C1294      H1306   1.083       .  S
C1295      C1296   1.347       .  D
C1295      H1307   1.087       .  S
C1296      C1297   1.483       .  S
C1296      H1308   1.085       .  S
C1297      C1298   1.402       .  A
C1297      C1302   1.405       .  A
C1298      C1299   1.402       .  A
C1298      H1309   1.083       .  S
C1299      C1300   1.408       .  A
C1299      H1310   1.083       .  S
C1300      C1301   1.406       .  A
C1301      C1302   1.395       .  A
C1301      H1311   1.083       .  S
C1302      H1312   1.083       .  S
C1313      C1314   1.405       .  A
C1313      C1318   1.410       .  A
C1314      C1315   1.402       .  A
C1314      H1327   1.083       .  S
C1315      C1316   1.407       .  A
C1315      H1328   1.084   1_545  S
C1316      C1317   1.408       .  A
C1316      C1319   1.498       .  S
C1317      C1318   1.403       .  A
C1317      H1329   1.081       .  S
C1318      H1330   1.083       .  S
C1319      C1320   1.355       .  D
C1319      H1331   1.084   1_545  S
C1320      C1321   1.501       .  S
C1320      H1332   1.085       .  S
C1321      C1322   1.409       .  A
C1321      C1326   1.408   1_545  A
C1322      C1323   1.406   1_545  A
C1322      H1333   1.084       .  S
C1323      C1324   1.406       .  A
C1323      H1334   1.082   1_565  S
C1324      C1325   1.410       .  A
C1325      C1326   1.400       .  A
C1325      H1335   1.083       .  S
C1326      H1336   1.080       .  S
C1337      C1338   1.406       .  A
C1337      C1342   1.406       .  A
C1338      C1339   1.401       .  A
C1338      H1351   1.083       .  S
C1339      C1340   1.407       .  A
C1339      H1352   1.083       .  S
C1340      C1341   1.409       .  A
C1340      C1343   1.496       .  S
C1341      C1342   1.397       .  A
C1341      H1353   1.079       .  S
C1342      H1354   1.083       .  S
C1343      C1344   1.352   1_455  D
C1343      H1355   1.082       .  S
C1344      C1345   1.496       .  S
C1344      H1356   1.082   1_655  S
C1345      C1346   1.406       .  A
C1345      C1350   1.410       .  A
C1346      C1347   1.399       .  A
C1346      H1357   1.083       .  S
C1347      C1348   1.405       .  A
C1347      H1358   1.083       .  S
C1348      C1349   1.407       .  A
C1349      C1350   1.402       .  A
C1349      H1359   1.083       .  S
C1350      H1360   1.079       .  S
C1361      C1362   1.406       .  A
C1361      C1366   1.411       .  A
C1362      C1363   1.408       .  A
C1362      H1375   1.083       .  S
C1363      C1364   1.409       .  A
C1363      H1376   1.083       .  S
C1364      C1365   1.406       .  A
C1364      C1367   1.498       .  S
C1365      C1366   1.399       .  A
C1365      H1377   1.081       .  S
C1366      H1378   1.083       .  S
C1367      C1368   1.355       .  D
C1367      H1379   1.085       .  S
C1368      C1369   1.498       .  S
C1368      H1380   1.085       .  S
C1369      C1370   1.409       .  A
C1369      C1374   1.406       .  A
C1370      C1371   1.406       .  A
C1370      H1381   1.083       .  S
C1371      C1372   1.406       .  A
C1371      H1382   1.083       .  S
C1372      C1373   1.411       .  A
C1373      C1374   1.401       .  A
C1373      H1383   1.083       .  S
C1374      H1384   1.082       .  S
C1385      C1386   1.408       .  A
C1385      C1390   1.406       .  A
C1386      C1387   1.398       .  A
C1386      H1399   1.083       .  S
C1387      C1388   1.402       .  A
C1387      H1400   1.083       .  S
C1388      C1389   1.410       .  A
C1388      C1391   1.491       .  S
C1389      C1390   1.403       .  A
C1389      H1401   1.082       .  S
C1390      H1402   1.083       .  S
C1391      C1392   1.347       .  D
C1391      H1403   1.084       .  S
C1392      C1393   1.492       .  S
C1392      H1404   1.085       .  S
C1393      C1394   1.402       .  A
C1393      C1398   1.411       .  A
C1394      C1395   1.396       .  A
C1394      H1405   1.083       .  S
C1395      C1396   1.407       .  A
C1395      H1406   1.083       .  S
C1396      C1397   1.406       .  A
C1397      C1398   1.403       .  A
C1397      H1407   1.083       .  S
C1398      H1408   1.081       .  S
C1409      C1410   1.404       .  A
C1409      C1414   1.407       .  A
C1410      C1411   1.396       .  A
C1410      H1423   1.083       .  S
C1411      C1412   1.405       .  A
C1411      H1424   1.083       .  S
C1412      C1413   1.407       .  A
C1412      C1415   1.486       .  S
C1413      C1414   1.398       .  A
C1413      H1425   1.080       .  S
C1414      H1426   1.082       .  S
C1415      C1416   1.349       .  D
C1415      H1427   1.087       .  S
C1416      C1417   1.481       .  S
C1416      H1428   1.083       .  S
C1417      C1418   1.403       .  A
C1417      C1422   1.404       .  A
C1418      C1419   1.402       .  A
C1418      H1429   1.083       .  S
C1419      C1420   1.407       .  A
C1419      H1430   1.082       .  S
C1420      C1421   1.406       .  A
C1421      C1422   1.393       .  A
C1421      H1431   1.083       .  S
C1422      H1432   1.083       .  S
C1433      C1434   1.407       .  A
C1433      C1438   1.406       .  A
C1434      C1435   1.404       .  A
C1434      H1447   1.083   1_545  S
C1435      C1436   1.405       .  A
C1435      H1448   1.083       .  S
C1436      C1437   1.405       .  A
C1436      C1439   1.487       .  S
C1437      C1438   1.393       .  A
C1437      H1449   1.082       .  S
C1438      H1450   1.083       .  S
C1439      C1440   1.350       .  D
C1439      H1451   1.084       .  S
C1440      C1441   1.486       .  S
C1440      H1452   1.086       .  S
C1441      C1442   1.404       .  A
C1441      C1446   1.407       .  A
C1442      C1443   1.396       .  A
C1442      H1453   1.083       .  S
C1443      C1444   1.405       .  A
C1443      H1454   1.083       .  S
C1444      C1445   1.407       .  A
C1445      C1446   1.400       .  A
C1445      H1455   1.083       .  S
C1446      H1456   1.081       .  S
C1457      C1458   1.407       .  A
C1457      C1462   1.407       .  A
C1458      C1459   1.401       .  A
C1458      H1471   1.082       .  S
C1459      C1460   1.406       .  A
C1459      H1472   1.084       .  S
C1460      C1461   1.411       .  A
C1460      C1463   1.498       .  S
C1461      C1462   1.402       .  A
C1461      H1473   1.080       .  S
C1462      H1474   1.083       .  S
C1463      C1464   1.352       .  D
C1463      H1475   1.085       .  S
C1464      C1465   1.494       .  S
C1464      H1476   1.083       .  S
C1465      C1466   1.404       .  A
C1465      C1470   1.409       .  A
C1466      C1467   1.399       .  A
C1466      H1477   1.084       .  S
C1467      C1468   1.408       .  A
C1467      H1478   1.083       .  S
C1468      C1469   1.408       .  A
C1469      C1470   1.404       .  A
C1469      H1479   1.083       .  S
C1470      H1480   1.081       .  S
C1481      C1482   1.406       .  A
C1481      C1486   1.406       .  A
C1482      C1483   1.401       .  A
C1482      H1495   1.082       .  S
C1483      C1484   1.405       .  A
C1483      H1496   1.084       .  S
C1484      C1485   1.407       .  A
C1484      C1487   1.489       .  S
C1485      C1486   1.396       .  A
C1485      H1497   1.080       .  S
C1486      H1498   1.083       .  S
C1487      C1488   1.350       .  D
C1487      H1499   1.086       .  S
C1488      C1489   1.482       .  S
C1488      H1500   1.083       .  S
C1489      C1490   1.403       .  A
C1489      C1494   1.404       .  A
C1490      C1491   1.399       .  A
C1490      H1501   1.084       .  S
C1491      C1492   1.405       .  A
C1491      H1502   1.082       .  S
C1492      C1493   1.409       .  A
C1493      C1494   1.397       .  A
C1493      H1503   1.083       .  S
C1494      H1504   1.083       .  S
