geometry optimzed in LAMMPS
_audit_creation_date              2020-12-01 
_audit_creation_method            'lammps2cif' 
_symmetry_space_group_name_H-M    'P1' 
_symmetry_Int_Tables_number       1 
_symmetry_cell_setting            triclinic 
loop_ 
_symmetry_equiv_pos_as_xyz 
  x,y,z 
_cell_length_a                    35.54339256 
_cell_length_b                    27.394737872545118 
_cell_length_c                    35.840721530115275 
_cell_angle_alpha                 90.00009121396954 
_cell_angle_beta                  90.00011311851954 
_cell_angle_gamma                 90.00173396946492 
loop_ 
_atom_site_label 
_atom_site_type_symbol 
_atom_site_fract_x 
_atom_site_fract_y 
_atom_site_fract_z 
_atom_site_charge 
O1          O  0.38810634  0.73115310  0.03971651    -0.80100
C2          C  0.46755164  0.64714262  0.41944246     0.99300
O3          O  0.47685712  0.64346069  0.45353831    -0.69200
O4          O  0.48387018  0.72215565  0.49357338    -0.72800
Al5        Al  0.45378867  0.66601337  0.99959744     1.49000
C6          C  0.47637076  0.76597262  0.50026326     0.94500
O7          O  0.40053937  0.77633525  0.44098592    -0.79000
O8          O  0.34318436  0.65662753  0.46821801    -0.72600
Al9        Al  0.39567561  0.75027895  0.49008119     1.90100
O10         O  0.37433876  0.71374130  0.41290901    -0.71600
O11         O  0.39926399  0.59308423  0.45938197    -0.71500
O12         O  0.43393994  0.65640340  0.41019827    -0.77100
O13         O  0.43121563  0.60496155  0.01037311    -0.75300
O14         O  0.41340333  0.69130537  0.47694673    -1.11500
O15         O  0.43782906  0.68474135  0.04921397    -0.70700
C16         C  0.40919638  0.70740116  0.06119413     1.00100
C17         C  0.38395279  0.75803175  0.41320517     0.96400
Al18       Al  0.38984403  0.65780138  0.44088128     1.55600
O19         O  0.44286724  0.78029882  0.50214284    -0.75300
C20         C  0.41306963  0.57716360  0.48928601     1.00600
C21         C  0.32675765  0.69472166  0.47977893     0.95500
O22         O  0.34408422  0.73467893  0.48247332    -0.80600
O23         O  0.38809658  0.27841447  0.46698934    -0.80100
C24         C  0.46755771  0.36226488  0.08732508     0.99300
O25         O  0.47686559  0.36597665  0.05323225    -0.69200
O26         O  0.48385634  0.28734062  0.01313186    -0.72800
Al27       Al  0.45378628  0.34349967  0.00715766     1.49000
C28         C  0.47634835  0.24352891  0.00643023     0.94500
O29         O  0.40051735  0.23311665  0.06569924    -0.79000
O30         O  0.34317369  0.35285836  0.03856688    -0.72600
Al31       Al  0.39565931  0.25923247  0.01661823     1.90100
O32         O  0.37434469  0.29568936  0.09382547    -0.71600
O33         O  0.39925971  0.41639121  0.04742381    -0.71500
O34         O  0.43394238  0.35301807  0.09656279    -0.77100
O35         O  0.43123027  0.40457564  0.49643621    -0.75300
O36         O  0.41339553  0.31818934  0.02979265    -1.11500
O37         O  0.43781729  0.32484524  0.45752536    -0.70700
C38         C  0.40918821  0.30219108  0.44552669     1.00100
C39         C  0.38395342  0.25139939  0.09350124     0.96400
Al40       Al  0.38984322  0.35165494  0.06588576     1.55600
O41         O  0.44284285  0.22921311  0.00454276    -0.75300
C42         C  0.41307610  0.43234704  0.01753558     1.00600
C43         C  0.32674430  0.31477661  0.02698375     0.95500
O44         O  0.34407453  0.27483105  0.02423611    -0.80600
O45         O  0.13801826  0.23083714  0.03974251    -0.80100
C46         C  0.21751121  0.14702076  0.41939901     0.99300
O47         O  0.22676834  0.14317956  0.45349733    -0.69200
O48         O  0.23384102  0.22197064  0.49342762    -0.72800
Al49       Al  0.20374340  0.16585300  0.99955250     1.49000
C50         C  0.22634699  0.26575928  0.50024883     0.94500
O51         O  0.15053834  0.27625547  0.44108264    -0.79000
O52         O  0.09317344  0.15646774  0.46812351    -0.72600
Al53       Al  0.14563200  0.25009123  0.49013653     1.90100
O54         O  0.12432625  0.21373295  0.41291523    -0.71600
O55         O  0.14930107  0.09299854  0.45925167    -0.71500
O56         O  0.18393416  0.15644601  0.41014177    -0.77100
O57         O  0.18107159  0.10488253  0.01036630    -0.75300
O58         O  0.16336708  0.19116852  0.47692565    -1.11500
O59         O  0.18787443  0.18466630  0.04919588    -0.70700
C60         C  0.15919710  0.20720439  0.06120992     1.00100
C61         C  0.13396503  0.25801434  0.41326999     0.96400
Al62       Al  0.13983789  0.15773607  0.44081034     1.55600
O63         O  0.19283965  0.28005832  0.50227004    -0.75300
C64         C  0.16300168  0.07708669  0.48920949     1.00600
C65         C  0.07672927  0.19453731  0.47970559     0.95500
O66         O  0.09404574  0.23449724  0.48246202    -0.80600
O67         O  0.13799703  0.77855579  0.46706947    -0.80100
C68         C  0.21752177  0.86249783  0.08733888     0.99300
O69         O  0.22675409  0.86635988  0.05323449    -0.69200
O70         O  0.23384625  0.78748079  0.01340638    -0.72800
Al71       Al  0.20373784  0.84357061  0.00720285     1.49000
C72         C  0.22635936  0.74369104  0.00657580     0.94500
O73         O  0.15056361  0.73322046  0.06573908    -0.79000
O74         O  0.09319856  0.85299681  0.03862897    -0.72600
Al75       Al  0.14563633  0.75934068  0.01667640     1.90100
O76         O  0.12432635  0.79575148  0.09387080    -0.71600
O77         O  0.14934777  0.91645559  0.04748205    -0.71500
O78         O  0.18395816  0.85301874  0.09661428    -0.77100
O79         O  0.18102569  0.90449563  0.49631944    -0.75300
O80         O  0.16337344  0.81827059  0.02985227    -1.11500
O81         O  0.18788919  0.82464660  0.45757498    -0.70700
C82         C  0.15919389  0.80212647  0.44558091     1.00100
C83         C  0.13397079  0.75147053  0.09353609     0.96400
Al84       Al  0.13985768  0.85173132  0.06595237     1.55600
O85         O  0.19285218  0.72938311  0.00453611    -0.75300
C86         C  0.16299964  0.93232557  0.01748724     1.00600
C87         C  0.07674657  0.81491941  0.02706793     0.95500
O88         O  0.09404848  0.77494185  0.02436295    -0.80600
O89         O  0.12832260  0.27833614  0.28978510    -0.80100
C90         C  0.04886016  0.36219621  0.16944946     0.99300
O91         O  0.03955774  0.36590854  0.20354366    -0.69200
O92         O  0.03256172  0.28724837  0.24362029    -0.72800
Al93       Al  0.06263031  0.34340507  0.24961417     1.49000
C94         C  0.04006769  0.24344022  0.25033625     0.94500
O95         O  0.11590952  0.23302930  0.19107678    -0.79000
O96         O  0.17323053  0.35279501  0.21820890    -0.72600
Al97       Al  0.12076208  0.25914960  0.24015705     1.90100
O98         O  0.14207715  0.29560781  0.16295031    -0.71600
O99         O  0.11713683  0.41630614  0.20934805    -0.71500
O100        O  0.08246944  0.35292173  0.16020812    -0.77100
O101        O  0.08519610  0.40447082  0.26035231    -0.75300
O102        O  0.10302035  0.31810061  0.22697968    -1.11500
O103        O  0.07858611  0.32473396  0.29924398    -0.70700
C104        C  0.10722154  0.30210029  0.31124523     1.00100
C105        C  0.13247404  0.25131459  0.16327563     0.96400
Al106      Al  0.12656705  0.35157172  0.19088694     1.55600
O107        O  0.07357373  0.22912507  0.25223271    -0.75300
C108        C  0.10333368  0.43225242  0.23924554     1.00600
C109        C  0.18966812  0.31472349  0.22979548     0.95500
O110        O  0.17234855  0.27476689  0.23254108    -0.80600
O111        O  0.12825734  0.73108224  0.21700889    -0.80100
C112        C  0.04885032  0.64709423  0.33731423     0.99300
O113        O  0.03953205  0.64340864  0.30322175    -0.69200
O114        O  0.03251133  0.72206624  0.26314602    -0.72800
Al115      Al  0.06259607  0.66592141  0.25714919     1.49000
C116        C  0.04000894  0.76588766  0.25646965     0.94500
O117        O  0.11584980  0.77626335  0.31574456    -0.79000
O118        O  0.17321383  0.65657156  0.28850688    -0.72600
Al119      Al  0.12070218  0.75020593  0.26664791     1.90100
O120        O  0.14206562  0.71368028  0.34381714    -0.71600
O121        O  0.11714306  0.59301243  0.29736961    -0.71500
O122        O  0.08246892  0.65633604  0.34654746    -0.77100
O123        O  0.08515864  0.60485719  0.24639617    -0.75300
O124        O  0.10298480  0.69122767  0.27978913    -1.11500
O125        O  0.07855894  0.68461628  0.20752486    -0.70700
C126        C  0.10717734  0.70730322  0.19553726     1.00100
C127        C  0.13244232  0.75796554  0.34352337     0.96400
Al128      Al  0.12655819  0.65773612  0.31585420     1.55600
O129        O  0.07351093  0.78021963  0.25460035    -0.75300
C130        C  0.10332025  0.57707395  0.26747965     1.00600
C131        C  0.18962881  0.69467329  0.27694003     0.95500
O132        O  0.17229212  0.73461973  0.27424143    -0.80600
O133        O  0.37843792  0.23084870  0.21704656    -0.80100
C134        C  0.29887189  0.14703944  0.33734971     0.99300
O135        O  0.28964538  0.14315538  0.30324574    -0.69200
O136        O  0.28258118  0.22200445  0.26338470    -0.72800
Al137      Al  0.31267561  0.16590071  0.25720911     1.49000
C138        C  0.29007755  0.26578600  0.25653575     0.94500
O139        O  0.36586693  0.27629068  0.31569447    -0.79000
O140        O  0.42321278  0.15647134  0.28867626    -0.72600
Al141      Al  0.37079574  0.25011729  0.26664504     1.90100
O142        O  0.39206682  0.21376962  0.34387340    -0.71600
O143        O  0.36705421  0.09303640  0.29752919    -0.71500
O144        O  0.33243489  0.15651517  0.34662639    -0.77100
O145        O  0.33537792  0.10496258  0.24635971    -0.75300
O146        O  0.35304298  0.19120640  0.27985205    -1.11500
O147        O  0.32853193  0.18477700  0.20757274    -0.70700
C148        C  0.35723473  0.20727057  0.19556776     1.00100
C149        C  0.38243420  0.25805404  0.34351235     0.96400
Al150      Al  0.37654301  0.15777086  0.31597676     1.55600
O151        O  0.32358741  0.28008015  0.25448307    -0.75300
C152        C  0.35340383  0.07714796  0.26753927     1.00600
C153        C  0.43967564  0.19453077  0.27709840     0.95500
O154        O  0.42237865  0.23450655  0.27434972    -0.80600
O155        O  0.37834582  0.77857836  0.28967314    -0.80100
C156        C  0.29888023  0.86255032  0.16938815     0.99300
O157        O  0.28962100  0.86637006  0.20348771    -0.69200
O158        O  0.28252060  0.78753775  0.24336688    -0.72800
Al159      Al  0.31263545  0.84363628  0.24953127     1.49000
C160        C  0.29000602  0.74373984  0.25016401     0.94500
O161        O  0.36580351  0.73328391  0.19099125    -0.79000
O162        O  0.42320932  0.85300878  0.21813314    -0.72600
Al163      Al  0.37072302  0.75938408  0.24005963     1.90100
O164        O  0.39205661  0.79581629  0.16287411    -0.71600
O165        O  0.36709742  0.91651081  0.20928180    -0.71500
O166        O  0.33245794  0.85312889  0.16012856    -0.77100
O167        O  0.33532291  0.90458494  0.26038803    -0.75300
O168        O  0.35300611  0.81832952  0.22689033    -1.11500
O169        O  0.32850005  0.82475721  0.29916269    -0.70700
C170        C  0.35717484  0.80219471  0.31115759     1.00100
C171        C  0.38240091  0.75153987  0.16319940     0.96400
Al172      Al  0.37655051  0.85179102  0.19080273     1.55600
O173        O  0.32351003  0.72942857  0.25217669    -0.75300
C174        C  0.35339882  0.93239619  0.23924830     1.00600
C175        C  0.43964039  0.81491539  0.22969013     0.95500
O176        O  0.42231522  0.77495584  0.23239443    -0.80600
C177        C  0.35717662  0.02616821  0.25771767    -0.11500
C178        C  0.35717540  0.98337078  0.24908642    -0.13100
C179        C  0.22882271  0.69523649  0.26698382    -0.11500
C180        C  0.25924748  0.71111774  0.25807121    -0.13100
C181        C  0.00926512  0.79852356  0.24855040    -0.11500
C182        C  0.47883696  0.81438364  0.23963260    -0.13100
C183        C  0.25931709  0.29839480  0.24861694    -0.11500
C184        C  0.22887097  0.31421632  0.23971867    -0.13100
C185        C  0.00932347  0.21081092  0.25826951    -0.11500
C186        C  0.47887876  0.19499910  0.26718185    -0.13100
C187        C  0.10707095  0.52607355  0.25765988    -0.11500
C188        C  0.10707616  0.48325913  0.24904871    -0.13100
C189        C  0.27022677  0.86729535  0.14049568    -0.11500
C190        C  0.24618631  0.86727660  0.11621757    -0.13100
C191        C  0.14151279  0.78673673  0.37573847    -0.11500
C192        C  0.15083197  0.80001592  0.40645294    -0.13100
C193        C  0.11558365  0.70935069  0.15642248    -0.11500
C194        C  0.12491442  0.72264341  0.12571882    -0.13100
C195        C  0.15923040  0.02610176  0.99902211    -0.11500
C196        C  0.15923010  0.98330214  0.00764963    -0.13100
C197        C  0.14153052  0.22252567  0.13106466    -0.11500
C198        C  0.15083837  0.20926400  0.10034172    -0.13100
C199        C  0.11561994  0.30009820  0.35036379    -0.11500
C200        C  0.12493296  0.28684291  0.38108213    -0.13100
C201        C  0.27020324  0.14228773  0.36622654    -0.11500
C202        C  0.24616380  0.14228257  0.39050537    -0.13100
C203        C  0.03752461  0.19504129  0.48961289    -0.11500
C204        C  0.00708729  0.21088785  0.49851097    -0.13100
C205        C  0.25710377  0.29838022  0.00816632    -0.11500
C206        C  0.28754021  0.31423824  0.01706442    -0.13100
C207        C  0.02022221  0.36691993  0.14053634    -0.11500
C208        C  0.49619733  0.36694406  0.11624104    -0.13100
C209        C  0.36559430  0.20934656  0.15643643    -0.11500
C210        C  0.37490191  0.22261084  0.12571388    -0.13100
C211        C  0.39147070  0.28689489  0.37569514    -0.11500
C212        C  0.40078731  0.30017300  0.40640783    -0.13100
C213        C  0.49619090  0.64241070  0.39053030    -0.11500
C214        C  0.02021641  0.64239487  0.36623494    -0.13100
C215        C  0.00711622  0.79860262  0.00819223    -0.11500
C216        C  0.03755159  0.81443104  0.01711958    -0.13100
C217        C  0.25712480  0.71108773  0.49865475    -0.11500
C218        C  0.28756231  0.69525410  0.48973630    -0.13100
C219        C  0.40932278  0.52616579  0.99911618    -0.11500
C220        C  0.40932526  0.48335293  0.00773238    -0.13100
C221        C  0.37487351  0.78680568  0.38099393    -0.11500
C222        C  0.36554471  0.80009082  0.35028394    -0.13100
C223        C  0.40078416  0.70944525  0.10030625    -0.11500
C224        C  0.39145148  0.72272458  0.13101150    -0.13100
O225        O  0.38810636  0.73115313  0.53971650    -0.80100
C226        C  0.46755165  0.64714261  0.91944250     0.99300
O227        O  0.47685716  0.64346072  0.95353832    -0.69200
O228        O  0.48387019  0.72215565  0.99357341    -0.72800
Al229      Al  0.45378865  0.66601337  0.49959741     1.49000
C230        C  0.47637075  0.76597261  0.00026330     0.94500
O231        O  0.40053940  0.77633521  0.94098593    -0.79000
O232        O  0.34318438  0.65662747  0.96821802    -0.72600
Al233      Al  0.39567561  0.75027892  0.99008120     1.90100
O234        O  0.37433879  0.71374125  0.91290903    -0.71600
O235        O  0.39926401  0.59308421  0.95938201    -0.71500
O236        O  0.43393996  0.65640336  0.91019829    -0.77100
O237        O  0.43121556  0.60496157  0.51037310    -0.75300
O238        O  0.41340334  0.69130534  0.97694675    -1.11500
O239        O  0.43782907  0.68474137  0.54921394    -0.70700
C240        C  0.40919640  0.70740118  0.56119411     1.00100
C241        C  0.38395281  0.75803171  0.91320518     0.96400
Al242      Al  0.38984405  0.65780134  0.94088131     1.55600
O243        O  0.44286723  0.78029879  0.00214288    -0.75300
C244        C  0.41306969  0.57716357  0.98928604     1.00600
C245        C  0.32675765  0.69472162  0.97977892     0.95500
O246        O  0.34408423  0.73467888  0.98247330    -0.80600
O247        O  0.38809664  0.27841450  0.96698938    -0.80100
C248        C  0.46755763  0.36226484  0.58732511     0.99300
O249        O  0.47686552  0.36597663  0.55323227    -0.69200
O250        O  0.48385630  0.28734061  0.51313187    -0.72800
Al251      Al  0.45378622  0.34349967  0.50715767     1.49000
C252        C  0.47634831  0.24352892  0.50643026     0.94500
O253        O  0.40051723  0.23311666  0.56569919    -0.79000
O254        O  0.34317360  0.35285839  0.53856688    -0.72600
Al255      Al  0.39565924  0.25923248  0.51661820     1.90100
O256        O  0.37434460  0.29568938  0.59382545    -0.71600
O257        O  0.39925967  0.41639122  0.54742382    -0.71500
O258        O  0.43394231  0.35301805  0.59656281    -0.77100
O259        O  0.43123031  0.40457561  0.99643620    -0.75300
O260        O  0.41339546  0.31818934  0.52979265    -1.11500
O261        O  0.43781735  0.32484526  0.95752535    -0.70700
C262        C  0.40918827  0.30219114  0.94552669     1.00100
C263        C  0.38395331  0.25139941  0.59350122     0.96400
Al264      Al  0.38984315  0.35165495  0.56588576     1.55600
O265        O  0.44284280  0.22921311  0.50454278    -0.75300
C266        C  0.41307606  0.43234706  0.51753558     1.00600
C267        C  0.32674422  0.31477666  0.52698371     0.95500
O268        O  0.34407445  0.27483110  0.52423603    -0.80600
O269        O  0.13801816  0.23083703  0.53974253    -0.80100
C270        C  0.21751121  0.14702077  0.91939897     0.99300
O271        O  0.22676836  0.14317965  0.95349731    -0.69200
O272        O  0.23384103  0.22197068  0.99342765    -0.72800
Al273      Al  0.20374336  0.16585296  0.49955252     1.49000
C274        C  0.22634703  0.26575935  0.00024882     0.94500
O275        O  0.15053840  0.27625552  0.94108259    -0.79000
O276        O  0.09317345  0.15646783  0.96812355    -0.72600
Al277      Al  0.14563206  0.25009131  0.99013650     1.90100
O278        O  0.12432627  0.21373300  0.91291524    -0.71600
O279        O  0.14930102  0.09299858  0.95925170    -0.71500
O280        O  0.18393413  0.15644599  0.91014177    -0.77100
O281        O  0.18107152  0.10488252  0.51036635    -0.75300
O282        O  0.16336712  0.19116858  0.97692564    -1.11500
O283        O  0.18787439  0.18466632  0.54919589    -0.70700
C284        C  0.15919702  0.20720434  0.56120993     1.00100
C285        C  0.13396508  0.25801441  0.91326997     0.96400
Al286      Al  0.13983789  0.15773611  0.94081036     1.55600
O287        O  0.19283969  0.28005843  0.00226998    -0.75300
C288        C  0.16300168  0.07708672  0.98920948     1.00600
C289        C  0.07672929  0.19453739  0.97970560     0.95500
O290        O  0.09404579  0.23449733  0.98246200    -0.80600
O291        O  0.13799706  0.77855577  0.96706948    -0.80100
C292        C  0.21752179  0.86249781  0.58733887     0.99300
O293        O  0.22675409  0.86635993  0.55323446    -0.69200
O294        O  0.23384627  0.78748082  0.51340638    -0.72800
Al295      Al  0.20373784  0.84357062  0.50720284     1.49000
C296        C  0.22635937  0.74369107  0.50657579     0.94500
O297        O  0.15056363  0.73322046  0.56573907    -0.79000
O298        O  0.09319856  0.85299684  0.53862897    -0.72600
Al299      Al  0.14563633  0.75934070  0.51667639     1.90100
O300        O  0.12432633  0.79575145  0.59387079    -0.71600
O301        O  0.14934782  0.91645559  0.54748209    -0.71500
O302        O  0.18395817  0.85301866  0.59661425    -0.77100
O303        O  0.18102575  0.90449564  0.99631946    -0.75300
O304        O  0.16337345  0.81827059  0.52985226    -1.11500
O305        O  0.18788919  0.82464663  0.95757499    -0.70700
C306        C  0.15919391  0.80212648  0.94558091     1.00100
C307        C  0.13397079  0.75147051  0.59353606     0.96400
Al308      Al  0.13985770  0.85173131  0.56595238     1.55600
O309        O  0.19285221  0.72938313  0.50453609    -0.75300
C310        C  0.16299963  0.93232557  0.51748726     1.00600
C311        C  0.07674656  0.81491945  0.52706794     0.95500
O312        O  0.09404847  0.77494189  0.52436294    -0.80600
O313        O  0.12832258  0.27833616  0.78978506    -0.80100
C314        C  0.04886017  0.36219624  0.66944946     0.99300
O315        O  0.03955775  0.36590853  0.70354368    -0.69200
O316        O  0.03256173  0.28724842  0.74362032    -0.72800
Al317      Al  0.06263031  0.34340511  0.74961417     1.49000
C318        C  0.04006769  0.24344025  0.75033627     0.94500
O319        O  0.11590946  0.23302935  0.69107675    -0.79000
O320        O  0.17323052  0.35279502  0.71820889    -0.72600
Al321      Al  0.12076205  0.25914962  0.74015703     1.90100
O322        O  0.14207713  0.29560783  0.66295029    -0.71600
O323        O  0.11713686  0.41630617  0.70934806    -0.71500
O324        O  0.08246947  0.35292179  0.66020813    -0.77100
O325        O  0.08519608  0.40447088  0.76035229    -0.75300
O326        O  0.10302034  0.31810064  0.72697967    -1.11500
O327        O  0.07858613  0.32473405  0.79924398    -0.70700
C328        C  0.10722154  0.30210034  0.81124522     1.00100
C329        C  0.13247400  0.25131463  0.66327561     0.96400
Al330      Al  0.12656706  0.35157175  0.69088693     1.55600
O331        O  0.07357373  0.22912510  0.75223272    -0.75300
C332        C  0.10333367  0.43225245  0.73924553     1.00600
C333        C  0.18966811  0.31472347  0.72979546     0.95500
O334        O  0.17234852  0.27476688  0.73254102    -0.80600
O335        O  0.12825736  0.73108221  0.71700885    -0.80100
C336        C  0.04885031  0.64709423  0.83731423     0.99300
O337        O  0.03953202  0.64340869  0.80322175    -0.69200
O338        O  0.03251138  0.72206626  0.76314602    -0.72800
Al339      Al  0.06259606  0.66592142  0.75714920     1.49000
C340        C  0.04000895  0.76588769  0.75646964     0.94500
O341        O  0.11584987  0.77626335  0.81574452    -0.79000
O342        O  0.17321383  0.65657157  0.78850692    -0.72600
Al343      Al  0.12070220  0.75020593  0.76664788     1.90100
O344        O  0.14206559  0.71368027  0.84381716    -0.71600
O345        O  0.11714313  0.59301242  0.79736960    -0.71500
O346        O  0.08246893  0.65633600  0.84654744    -0.77100
O347        O  0.08515860  0.60485717  0.74639622    -0.75300
O348        O  0.10298481  0.69122767  0.77978913    -1.11500
O349        O  0.07855894  0.68461627  0.70752485    -0.70700
C350        C  0.10717735  0.70730322  0.69553725     1.00100
C351        C  0.13244235  0.75796551  0.84352338     0.96400
Al352      Al  0.12655820  0.65773612  0.81585420     1.55600
O353        O  0.07351098  0.78021966  0.75460032    -0.75300
C354        C  0.10332030  0.57707396  0.76747969     1.00600
C355        C  0.18962882  0.69467330  0.77694004     0.95500
O356        O  0.17229213  0.73461971  0.77424138    -0.80600
O357        O  0.37843792  0.23084872  0.71704655    -0.80100
C358        C  0.29887192  0.14703940  0.83734971     0.99300
O359        O  0.28964542  0.14315534  0.80324571    -0.69200
O360        O  0.28258120  0.22200445  0.76338471    -0.72800
Al361      Al  0.31267562  0.16590071  0.75720910     1.49000
C362        C  0.29007755  0.26578603  0.75653575     0.94500
O363        O  0.36586694  0.27629070  0.81569445    -0.79000
O364        O  0.42321281  0.15647136  0.78867627    -0.72600
Al365      Al  0.37079575  0.25011730  0.76664503     1.90100
O366        O  0.39206681  0.21376963  0.84387339    -0.71600
O367        O  0.36705425  0.09303642  0.79752916    -0.71500
O368        O  0.33243491  0.15651515  0.84662636    -0.77100
O369        O  0.33537794  0.10496261  0.74635969    -0.75300
O370        O  0.35304300  0.19120640  0.77985204    -1.11500
O371        O  0.32853191  0.18477703  0.70757274    -0.70700
C372        C  0.35723472  0.20727062  0.69556775     1.00100
C373        C  0.38243419  0.25805404  0.84351237     0.96400
Al374      Al  0.37654303  0.15777086  0.81597675     1.55600
O375        O  0.32358743  0.28008016  0.75448307    -0.75300
C376        C  0.35340387  0.07714796  0.76753924     1.00600
C377        C  0.43967567  0.19453078  0.77709840     0.95500
O378        O  0.42237866  0.23450656  0.77434969    -0.80600
O379        O  0.37834581  0.77857828  0.78967312    -0.80100
C380        C  0.29888021  0.86255029  0.66938813     0.99300
O381        O  0.28962099  0.86637001  0.70348772    -0.69200
O382        O  0.28252060  0.78753777  0.74336696    -0.72800
Al383      Al  0.31263545  0.84363628  0.74953128     1.49000
C384        C  0.29000600  0.74373987  0.75016401     0.94500
O385        O  0.36580350  0.73328388  0.69099123    -0.79000
O386        O  0.42320933  0.85300874  0.71813311    -0.72600
Al387      Al  0.37072301  0.75938405  0.74005961     1.90100
O388        O  0.39205657  0.79581628  0.66287408    -0.71600
O389        O  0.36709741  0.91651079  0.70928177    -0.71500
O390        O  0.33245793  0.85312888  0.66012855    -0.77100
O391        O  0.33532290  0.90458495  0.76038799    -0.75300
O392        O  0.35300611  0.81832950  0.72689032    -1.11500
O393        O  0.32850011  0.82475726  0.79916270    -0.70700
C394        C  0.35717488  0.80219469  0.81115757     1.00100
C395        C  0.38240089  0.75153984  0.66319938     0.96400
Al396      Al  0.37655049  0.85179101  0.69080270     1.55600
O397        O  0.32351003  0.72942856  0.75217663    -0.75300
C398        C  0.35339880  0.93239622  0.73924827     1.00600
C399        C  0.43964037  0.81491540  0.72969010     0.95500
O400        O  0.42231522  0.77495582  0.73239443    -0.80600
C401        C  0.35717665  0.02616825  0.75771762    -0.11500
C402        C  0.35717539  0.98337079  0.74908636    -0.13100
C403        C  0.22882272  0.69523647  0.76698383    -0.11500
C404        C  0.25924748  0.71111773  0.75807121    -0.13100
C405        C  0.00926514  0.79852355  0.74855039    -0.11500
C406        C  0.47883696  0.81438362  0.73963257    -0.13100
C407        C  0.25931709  0.29839479  0.74861695    -0.11500
C408        C  0.22887094  0.31421630  0.73971866    -0.13100
C409        C  0.00932348  0.21081097  0.75826950    -0.11500
C410        C  0.47887878  0.19499912  0.76718185    -0.13100
C411        C  0.10707100  0.52607357  0.75765986    -0.11500
C412        C  0.10707618  0.48325917  0.74904869    -0.13100
C413        C  0.27022676  0.86729532  0.64049569    -0.11500
C414        C  0.24618629  0.86727658  0.61621756    -0.13100
C415        C  0.14151278  0.78673673  0.87573847    -0.11500
C416        C  0.15083195  0.80001592  0.90645295    -0.13100
C417        C  0.11558363  0.70935067  0.65642245    -0.11500
C418        C  0.12491440  0.72264337  0.62571880    -0.13100
C419        C  0.15923040  0.02610174  0.49902211    -0.11500
C420        C  0.15923010  0.98330213  0.50764965    -0.13100
C421        C  0.14153048  0.22252567  0.63106465    -0.11500
C422        C  0.15083832  0.20926396  0.60034174    -0.13100
C423        C  0.11561996  0.30009821  0.85036375    -0.11500
C424        C  0.12493300  0.28684293  0.88108210    -0.13100
C425        C  0.27020325  0.14228771  0.86622649    -0.11500
C426        C  0.24616377  0.14228256  0.89050533    -0.13100
C427        C  0.03752463  0.19504144  0.98961289    -0.11500
C428        C  0.00708728  0.21088797  0.99851096    -0.13100
C429        C  0.25710371  0.29838021  0.50816632    -0.11500
C430        C  0.28754012  0.31423828  0.51706440    -0.13100
C431        C  0.02022224  0.36691994  0.64053636    -0.11500
C432        C  0.49619728  0.36694400  0.61624105    -0.13100
C433        C  0.36559425  0.20934661  0.65643643    -0.11500
C434        C  0.37490183  0.22261088  0.62571385    -0.13100
C435        C  0.39147065  0.28689488  0.87569516    -0.11500
C436        C  0.40078730  0.30017303  0.90640786    -0.13100
C437        C  0.49619091  0.64241068  0.89053031    -0.11500
C438        C  0.02021643  0.64239485  0.86623496    -0.13100
C439        C  0.00711620  0.79860272  0.50819223    -0.11500
C440        C  0.03755157  0.81443109  0.51711959    -0.13100
C441        C  0.25712478  0.71108768  0.99865474    -0.11500
C442        C  0.28756230  0.69525406  0.98973628    -0.13100
C443        C  0.40932269  0.52616581  0.49911617    -0.11500
C444        C  0.40932518  0.48335296  0.50773238    -0.13100
C445        C  0.37487354  0.78680562  0.88099392    -0.11500
C446        C  0.36554477  0.80009078  0.85028393    -0.13100
C447        C  0.40078418  0.70944525  0.60030623    -0.11500
C448        C  0.39145148  0.72272457  0.63101148    -0.13100
O449        O  0.88810634  0.73115313  0.03971649    -0.80100
C450        C  0.96755162  0.64714264  0.41944246     0.99300
O451        O  0.97685712  0.64346077  0.45353830    -0.69200
O452        O  0.98387017  0.72215570  0.49357336    -0.72800
Al453      Al  0.95378861  0.66601333  0.99959744     1.49000
C454        C  0.97637073  0.76597264  0.50026327     0.94500
O455        O  0.90053934  0.77633525  0.44098594    -0.79000
O456        O  0.84318434  0.65662752  0.46821803    -0.72600
Al457      Al  0.89567558  0.75027894  0.49008120     1.90100
O458        O  0.87433875  0.71374128  0.41290902    -0.71600
O459        O  0.89926397  0.59308423  0.45938201    -0.71500
O460        O  0.93393992  0.65640337  0.41019827    -0.77100
O461        O  0.93121551  0.60496154  0.01037313    -0.75300
O462        O  0.91340331  0.69130538  0.47694674    -1.11500
O463        O  0.93782903  0.68474131  0.04921396    -0.70700
C464        C  0.90919637  0.70740115  0.06119413     1.00100
C465        C  0.88395276  0.75803175  0.41320519     0.96400
Al466      Al  0.88984401  0.65780136  0.44088129     1.55600
O467        O  0.94286721  0.78029883  0.50214288    -0.75300
C468        C  0.91306966  0.57716360  0.48928603     1.00600
C469        C  0.82675763  0.69472163  0.47977892     0.95500
O470        O  0.84408417  0.73467892  0.48247332    -0.80600
O471        O  0.88809662  0.27841450  0.46698936    -0.80100
C472        C  0.96755764  0.36226487  0.08732509     0.99300
O473        O  0.97686551  0.36597670  0.05323228    -0.69200
O474        O  0.98385627  0.28734065  0.01313192    -0.72800
Al475      Al  0.95378620  0.34349968  0.00715768     1.49000
C476        C  0.97634831  0.24352896  0.00643025     0.94500
O477        O  0.90051727  0.23311665  0.06569921    -0.79000
O478        O  0.84317361  0.35285836  0.03856688    -0.72600
Al479      Al  0.89565924  0.25923248  0.01661821     1.90100
O480        O  0.87434459  0.29568934  0.09382546    -0.71600
O481        O  0.89925965  0.41639121  0.04742384    -0.71500
O482        O  0.93394233  0.35301803  0.09656282    -0.77100
O483        O  0.93123035  0.40457563  0.49643622    -0.75300
O484        O  0.91339545  0.31818934  0.02979266    -1.11500
O485        O  0.93781735  0.32484523  0.45752537    -0.70700
C486        C  0.90918826  0.30219110  0.44552670     1.00100
C487        C  0.88395335  0.25139939  0.09350123     0.96400
Al488      Al  0.88984315  0.35165492  0.06588577     1.55600
O489        O  0.94284280  0.22921313  0.00454273    -0.75300
C490        C  0.91307599  0.43234703  0.01753559     1.00600
C491        C  0.82674423  0.31477662  0.02698373     0.95500
O492        O  0.84407445  0.27483105  0.02423608    -0.80600
O493        O  0.63801821  0.23083710  0.03974250    -0.80100
C494        C  0.71751120  0.14702076  0.41939899     0.99300
O495        O  0.72676835  0.14317958  0.45349731    -0.69200
O496        O  0.73384101  0.22197063  0.49342762    -0.72800
Al497      Al  0.70374338  0.16585300  0.99955250     1.49000
C498        C  0.72634701  0.26575930  0.50024882     0.94500
O499        O  0.65053834  0.27625546  0.44108263    -0.79000
O500        O  0.59317343  0.15646778  0.46812357    -0.72600
Al501      Al  0.64563202  0.25009125  0.49013653     1.90100
O502        O  0.62432620  0.21373295  0.41291526    -0.71600
O503        O  0.64930104  0.09299855  0.45925167    -0.71500
O504        O  0.68393412  0.15644600  0.41014178    -0.77100
O505        O  0.68107153  0.10488256  0.01036634    -0.75300
O506        O  0.66336709  0.19116853  0.47692565    -1.11500
O507        O  0.68787442  0.18466635  0.04919588    -0.70700
C508        C  0.65919709  0.20720438  0.06120992     1.00100
C509        C  0.63396501  0.25801434  0.41326998     0.96400
Al510      Al  0.63983786  0.15773608  0.44081037     1.55600
O511        O  0.69283967  0.28005836  0.50227001    -0.75300
C512        C  0.66300166  0.07708669  0.48920947     1.00600
C513        C  0.57672927  0.19453735  0.47970563     0.95500
O514        O  0.59404574  0.23449728  0.48246206    -0.80600
O515        O  0.63799705  0.77855580  0.46706946    -0.80100
C516        C  0.71752177  0.86249784  0.08733888     0.99300
O517        O  0.72675410  0.86635991  0.05323449    -0.69200
O518        O  0.73384626  0.78748079  0.01340642    -0.72800
Al519      Al  0.70373786  0.84357060  0.00720285     1.49000
C520        C  0.72635937  0.74369105  0.00657581     0.94500
O521        O  0.65056362  0.73322046  0.06573907    -0.79000
O522        O  0.59319856  0.85299684  0.03862897    -0.72600
Al523      Al  0.64563633  0.75934069  0.01667639     1.90100
O524        O  0.62432635  0.79575147  0.09387079    -0.71600
O525        O  0.64934779  0.91645560  0.04748204    -0.71500
O526        O  0.68395816  0.85301872  0.09661426    -0.77100
O527        O  0.68102575  0.90449564  0.49631946    -0.75300
O528        O  0.66337345  0.81827060  0.02985226    -1.11500
O529        O  0.68788920  0.82464663  0.45757497    -0.70700
C530        C  0.65919390  0.80212650  0.44558090     1.00100
C531        C  0.63397079  0.75147052  0.09353607     0.96400
Al532      Al  0.63985769  0.85173132  0.06595237     1.55600
O533        O  0.69285220  0.72938312  0.00453609    -0.75300
C534        C  0.66299964  0.93232557  0.01748724     1.00600
C535        C  0.57674656  0.81491946  0.02706794     0.95500
O536        O  0.59404848  0.77494189  0.02436293    -0.80600
O537        O  0.62832256  0.27833614  0.28978508    -0.80100
C538        C  0.54886015  0.36219623  0.16944947     0.99300
O539        O  0.53955775  0.36590856  0.20354370    -0.69200
O540        O  0.53256171  0.28724840  0.24362032    -0.72800
Al541      Al  0.56263030  0.34340509  0.24961419     1.49000
C542        C  0.54006767  0.24344023  0.25033627     0.94500
O543        O  0.61590945  0.23302930  0.19107676    -0.79000
O544        O  0.67323052  0.35279496  0.21820891    -0.72600
Al545      Al  0.62076204  0.25914959  0.24015704     1.90100
O546        O  0.64207711  0.29560780  0.16295031    -0.71600
O547        O  0.61713682  0.41630612  0.20934806    -0.71500
O548        O  0.58246945  0.35292173  0.16020814    -0.77100
O549        O  0.58519610  0.40447083  0.26035232    -0.75300
O550        O  0.60302032  0.31810060  0.22697968    -1.11500
O551        O  0.57858608  0.32473399  0.29924400    -0.70700
C552        C  0.60722150  0.30210032  0.31124524     1.00100
C553        C  0.63247400  0.25131460  0.16327561     0.96400
Al554      Al  0.62656704  0.35157171  0.19088694     1.55600
O555        O  0.57357370  0.22912507  0.25223272    -0.75300
C556        C  0.60333367  0.43225241  0.23924556     1.00600
C557        C  0.68966810  0.31472345  0.22979547     0.95500
O558        O  0.67234853  0.27476683  0.23254105    -0.80600
O559        O  0.62825737  0.73108223  0.21700888    -0.80100
C560        C  0.54885034  0.64709422  0.33731424     0.99300
O561        O  0.53953206  0.64340868  0.30322175    -0.69200
O562        O  0.53251139  0.72206624  0.26314601    -0.72800
Al563      Al  0.56259609  0.66592141  0.25714920     1.49000
C564        C  0.54000896  0.76588767  0.25646964     0.94500
O565        O  0.61584984  0.77626335  0.31574455    -0.79000
O566        O  0.67321387  0.65657158  0.28850691    -0.72600
Al567      Al  0.62070221  0.75020593  0.26664790     1.90100
O568        O  0.64206561  0.71368028  0.34381716    -0.71600
O569        O  0.61714314  0.59301244  0.29736959    -0.71500
O570        O  0.58246896  0.65633599  0.34654745    -0.77100
O571        O  0.58515863  0.60485716  0.24639620    -0.75300
O572        O  0.60298484  0.69122767  0.27978913    -1.11500
O573        O  0.57855898  0.68461625  0.20752486    -0.70700
C574        C  0.60717737  0.70730320  0.19553726     1.00100
C575        C  0.63244234  0.75796553  0.34352338     0.96400
Al576      Al  0.62655823  0.65773611  0.31585420     1.55600
O577        O  0.57351099  0.78021964  0.25460034    -0.75300
C578        C  0.60332029  0.57707395  0.26747965     1.00600
C579        C  0.68962884  0.69467330  0.27694005     0.95500
O580        O  0.67229216  0.73461973  0.27424142    -0.80600
O581        O  0.87843796  0.23084870  0.21704656    -0.80100
C582        C  0.79887189  0.14703945  0.33734970     0.99300
O583        O  0.78964540  0.14315540  0.30324571    -0.69200
O584        O  0.78258121  0.22200447  0.26338468    -0.72800
Al585      Al  0.81267564  0.16590073  0.25720910     1.49000
C586        C  0.79007758  0.26578604  0.25653573     0.94500
O587        O  0.86586695  0.27629068  0.31569447    -0.79000
O588        O  0.92321280  0.15647133  0.28867628    -0.72600
Al589      Al  0.87079577  0.25011729  0.26664505     1.90100
O590        O  0.89206681  0.21376961  0.34387341    -0.71600
O591        O  0.86705423  0.09303639  0.29752918    -0.71500
O592        O  0.83243488  0.15651517  0.34662638    -0.77100
O593        O  0.83537794  0.10496259  0.24635971    -0.75300
O594        O  0.85304300  0.19120640  0.27985205    -1.11500
O595        O  0.82853197  0.18477701  0.20757273    -0.70700
C596        C  0.85723478  0.20727057  0.19556777     1.00100
C597        C  0.88243421  0.25805404  0.34351236     0.96400
Al598      Al  0.87654302  0.15777085  0.31597677     1.55600
O599        O  0.82358743  0.28008017  0.25448307    -0.75300
C600        C  0.85340384  0.07714796  0.26753928     1.00600
C601        C  0.93967567  0.19453076  0.27709842     0.95500
O602        O  0.92237868  0.23450654  0.27434973    -0.80600
O603        O  0.87834583  0.77857835  0.28967314    -0.80100
C604        C  0.79888020  0.86255032  0.16938816     0.99300
O605        O  0.78962096  0.86637002  0.20348774    -0.69200
O606        O  0.78252060  0.78753774  0.24336692    -0.72800
Al607      Al  0.81263543  0.84363627  0.24953129     1.49000
C608        C  0.79000602  0.74373984  0.25016402     0.94500
O609        O  0.86580352  0.73328390  0.19099127    -0.79000
O610        O  0.92320934  0.85300876  0.21813312    -0.72600
Al611      Al  0.87072302  0.75938408  0.24005963     1.90100
O612        O  0.89205654  0.79581631  0.16287410    -0.71600
O613        O  0.86709741  0.91651082  0.20928181    -0.71500
O614        O  0.83245790  0.85312892  0.16012857    -0.77100
O615        O  0.83532287  0.90458496  0.26038802    -0.75300
O616        O  0.85300610  0.81832952  0.22689034    -1.11500
O617        O  0.82850007  0.82475722  0.29916270    -0.70700
C618        C  0.85717487  0.80219471  0.31115759     1.00100
C619        C  0.88240088  0.75153987  0.16319939     0.96400
Al620      Al  0.87655048  0.85179104  0.19080272     1.55600
O621        O  0.82351004  0.72942856  0.25217668    -0.75300
C622        C  0.85339879  0.93239620  0.23924830     1.00600
C623        C  0.93964038  0.81491543  0.22969011     0.95500
O624        O  0.92231523  0.77495585  0.23239444    -0.80600
C625        C  0.85717661  0.02616821  0.25771766    -0.11500
C626        C  0.85717538  0.98337079  0.24908642    -0.13100
C627        C  0.72882274  0.69523647  0.26698383    -0.11500
C628        C  0.75924750  0.71111771  0.25807121    -0.13100
C629        C  0.50926515  0.79852355  0.24855040    -0.11500
C630        C  0.97883697  0.81438365  0.23963259    -0.13100
C631        C  0.75931710  0.29839480  0.24861692    -0.11500
C632        C  0.72887096  0.31421626  0.23971866    -0.13100
C633        C  0.50932345  0.21081095  0.25826951    -0.11500
C634        C  0.97887879  0.19499909  0.26718186    -0.13100
C635        C  0.60707100  0.52607355  0.25765987    -0.11500
C636        C  0.60707619  0.48325912  0.24904871    -0.13100
C637        C  0.77022673  0.86729536  0.14049571    -0.11500
C638        C  0.74618628  0.86727662  0.11621758    -0.13100
C639        C  0.64151279  0.78673675  0.37573847    -0.11500
C640        C  0.65083196  0.80001595  0.40645294    -0.13100
C641        C  0.61558368  0.70935067  0.15642247    -0.11500
C642        C  0.62491443  0.72264339  0.12571881    -0.13100
C643        C  0.65923042  0.02610176  0.99902210    -0.11500
C644        C  0.65923011  0.98330214  0.00764962    -0.13100
C645        C  0.64153049  0.22252566  0.13106465    -0.11500
C646        C  0.65083835  0.20926400  0.10034172    -0.13100
C647        C  0.61561993  0.30009819  0.35036378    -0.11500
C648        C  0.62493297  0.28684289  0.38108212    -0.13100
C649        C  0.77020321  0.14228775  0.36622649    -0.11500
C650        C  0.74616375  0.14228259  0.39050533    -0.13100
C651        C  0.53752459  0.19504134  0.48961293    -0.11500
C652        C  0.50708726  0.21088787  0.49851099    -0.13100
C653        C  0.75710372  0.29838023  0.00816630    -0.11500
C654        C  0.78754014  0.31423826  0.01706440    -0.13100
C655        C  0.52022224  0.36691996  0.14053637    -0.11500
C656        C  0.99619729  0.36694402  0.11624106    -0.13100
C657        C  0.86559436  0.20934656  0.15643644    -0.11500
C658        C  0.87490192  0.22261083  0.12571388    -0.13100
C659        C  0.89147074  0.28689488  0.37569515    -0.11500
C660        C  0.90078736  0.30017301  0.40640784    -0.13100
C661        C  0.99619087  0.64241072  0.39053029    -0.11500
C662        C  0.52021645  0.64239486  0.36623495    -0.13100
C663        C  0.50711620  0.79860269  0.00819225    -0.11500
C664        C  0.53755158  0.81443108  0.01711960    -0.13100
C665        C  0.75712477  0.71108767  0.49865474    -0.11500
C666        C  0.78756226  0.69525405  0.48973629    -0.13100
C667        C  0.90932267  0.52616578  0.99911616    -0.11500
C668        C  0.90932513  0.48335292  0.00773237    -0.13100
C669        C  0.87487350  0.78680566  0.38099394    -0.11500
C670        C  0.86554474  0.80009082  0.35028394    -0.13100
C671        C  0.90078414  0.70944527  0.10030623    -0.11500
C672        C  0.89145144  0.72272461  0.13101149    -0.13100
O673        O  0.88810631  0.73115310  0.53971651    -0.80100
C674        C  0.96755162  0.64714261  0.91944248     0.99300
O675        O  0.97685709  0.64346065  0.95353833    -0.69200
O676        O  0.98387018  0.72215558  0.99357343    -0.72800
Al677      Al  0.95378865  0.66601341  0.49959740     1.49000
C678        C  0.97637076  0.76597255  0.00026329     0.94500
O679        O  0.90053940  0.77633521  0.94098590    -0.79000
O680        O  0.84318436  0.65662750  0.96821803    -0.72600
Al681      Al  0.89567561  0.75027893  0.99008118     1.90100
O682        O  0.87433873  0.71374127  0.91290902    -0.71600
O683        O  0.89926399  0.59308422  0.95938197    -0.71500
O684        O  0.93393993  0.65640340  0.91019827    -0.77100
O685        O  0.93121561  0.60496158  0.51037310    -0.75300
O686        O  0.91340331  0.69130535  0.97694674    -1.11500
O687        O  0.93782906  0.68474139  0.54921395    -0.70700
C688        C  0.90919637  0.70740117  0.56119411     1.00100
C689        C  0.88395279  0.75803171  0.91320516     0.96400
Al690      Al  0.88984402  0.65780136  0.94088129     1.55600
O691        O  0.94286725  0.78029877  0.00214285    -0.75300
C692        C  0.91306962  0.57716357  0.98928604     1.00600
C693        C  0.82675764  0.69472165  0.97977892     0.95500
O694        O  0.84408421  0.73467892  0.98247328    -0.80600
O695        O  0.88809657  0.27841452  0.96698936    -0.80100
C696        C  0.96755769  0.36226486  0.58732510     0.99300
O697        O  0.97686559  0.36597661  0.55323228    -0.69200
O698        O  0.98385635  0.28734059  0.51313189    -0.72800
Al699      Al  0.95378628  0.34349966  0.50715769     1.49000
C700        C  0.97634836  0.24352891  0.50643026     0.94500
O701        O  0.90051731  0.23311666  0.56569919    -0.79000
O702        O  0.84317365  0.35285838  0.53856688    -0.72600
Al703      Al  0.89565929  0.25923248  0.51661821     1.90100
O704        O  0.87434466  0.29568938  0.59382544    -0.71600
O705        O  0.89925970  0.41639122  0.54742380    -0.71500
O706        O  0.93394235  0.35301808  0.59656280    -0.77100
O707        O  0.93123018  0.40457559  0.99643619    -0.75300
O708        O  0.91339552  0.31818934  0.52979265    -1.11500
O709        O  0.93781731  0.32484523  0.95752536    -0.70700
C710        C  0.90918824  0.30219113  0.94552668     1.00100
C711        C  0.88395338  0.25139941  0.59350123     0.96400
Al712      Al  0.88984320  0.35165495  0.56588576     1.55600
O713        O  0.94284284  0.22921311  0.50454276    -0.75300
C714        C  0.91307613  0.43234705  0.51753557     1.00600
C715        C  0.82674427  0.31477663  0.52698372     0.95500
O716        O  0.84407451  0.27483108  0.52423606    -0.80600
O717        O  0.63801823  0.23083707  0.53974254    -0.80100
C718        C  0.71751122  0.14702077  0.91939900     0.99300
O719        O  0.72676836  0.14317958  0.95349732    -0.69200
O720        O  0.73384101  0.22197068  0.99342761    -0.72800
Al721      Al  0.70374338  0.16585296  0.49955250     1.49000
C722        C  0.72634699  0.26575934  0.00024881     0.94500
O723        O  0.65053840  0.27625552  0.94108259    -0.79000
O724        O  0.59317347  0.15646779  0.96812353    -0.72600
Al725      Al  0.64563204  0.25009129  0.99013649     1.90100
O726        O  0.62432627  0.21373301  0.91291522    -0.71600
O727        O  0.64930108  0.09299857  0.95925166    -0.71500
O728        O  0.68393418  0.15644605  0.91014175    -0.77100
O729        O  0.68107154  0.10488251  0.51036632    -0.75300
O730        O  0.66336711  0.19116857  0.97692563    -1.11500
O731        O  0.68787443  0.18466628  0.54919588    -0.70700
C732        C  0.65919709  0.20720435  0.56120994     1.00100
C733        C  0.63396508  0.25801442  0.91326998     0.96400
Al734      Al  0.63983791  0.15773611  0.94081034     1.55600
O735        O  0.69283967  0.28005840  0.00227000    -0.75300
C736        C  0.66300168  0.07708672  0.98920948     1.00600
C737        C  0.57672930  0.19453734  0.97970558     0.95500
O738        O  0.59404578  0.23449730  0.98246197    -0.80600
O739        O  0.63799705  0.77855578  0.96706947    -0.80100
C740        C  0.71752178  0.86249780  0.58733890     0.99300
O741        O  0.72675410  0.86635986  0.55323447    -0.69200
O742        O  0.73384628  0.78748080  0.51340635    -0.72800
Al743      Al  0.70373785  0.84357061  0.50720284     1.49000
C744        C  0.72635936  0.74369107  0.50657579     0.94500
O745        O  0.65056359  0.73322046  0.56573905    -0.79000
O746        O  0.59319857  0.85299685  0.53862897    -0.72600
Al747      Al  0.64563632  0.75934071  0.51667638     1.90100
O748        O  0.62432635  0.79575149  0.59387080    -0.71600
O749        O  0.64934780  0.91645560  0.54748206    -0.71500
O750        O  0.68395816  0.85301870  0.59661426    -0.77100
O751        O  0.68102574  0.90449563  0.99631944    -0.75300
O752        O  0.66337345  0.81827060  0.52985225    -1.11500
O753        O  0.68788921  0.82464658  0.95757499    -0.70700
C754        C  0.65919390  0.80212645  0.94558092     1.00100
C755        C  0.63397077  0.75147053  0.59353607     0.96400
Al756      Al  0.63985769  0.85173132  0.56595237     1.55600
O757        O  0.69285220  0.72938314  0.50453610    -0.75300
C758        C  0.66299967  0.93232558  0.51748726     1.00600
C759        C  0.57674657  0.81491944  0.52706792     0.95500
O760        O  0.59404847  0.77494190  0.52436292    -0.80600
O761        O  0.62832261  0.27833617  0.78978507    -0.80100
C762        C  0.54886017  0.36219622  0.66944943     0.99300
O763        O  0.53955774  0.36590852  0.70354367    -0.69200
O764        O  0.53256172  0.28724839  0.74362031    -0.72800
Al765      Al  0.56263030  0.34340509  0.74961416     1.49000
C766        C  0.54006769  0.24344024  0.75033625     0.94500
O767        O  0.61590948  0.23302936  0.69107676    -0.79000
O768        O  0.67323052  0.35279503  0.71820891    -0.72600
Al769      Al  0.62076207  0.25914964  0.74015703     1.90100
O770        O  0.64207713  0.29560786  0.66295030    -0.71600
O771        O  0.61713683  0.41630619  0.70934807    -0.71500
O772        O  0.58246947  0.35292179  0.66020812    -0.77100
O773        O  0.58519605  0.40447087  0.76035229    -0.75300
O774        O  0.60302034  0.31810064  0.72697967    -1.11500
O775        O  0.57858612  0.32473401  0.79924398    -0.70700
C776        C  0.60722156  0.30210032  0.81124521     1.00100
C777        C  0.63247402  0.25131464  0.66327561     0.96400
Al778      Al  0.62656705  0.35157176  0.69088694     1.55600
O779        O  0.57357374  0.22912510  0.75223272    -0.75300
C780        C  0.60333364  0.43225245  0.73924553     1.00600
C781        C  0.68966811  0.31472351  0.72979547     0.95500
O782        O  0.67234855  0.27476690  0.73254104    -0.80600
O783        O  0.62825733  0.73108224  0.71700888    -0.80100
C784        C  0.54885031  0.64709424  0.83731422     0.99300
O785        O  0.53953203  0.64340865  0.80322175    -0.69200
O786        O  0.53251132  0.72206623  0.76314601    -0.72800
Al787      Al  0.56259606  0.66592141  0.75714919     1.49000
C788        C  0.54000893  0.76588765  0.75646964     0.94500
O789        O  0.61584980  0.77626335  0.81574455    -0.79000
O790        O  0.67321381  0.65657157  0.78850690    -0.72600
Al791      Al  0.62070217  0.75020594  0.76664790     1.90100
O792        O  0.64206559  0.71368029  0.84381715    -0.71600
O793        O  0.61714306  0.59301243  0.79736963    -0.71500
O794        O  0.58246891  0.65633605  0.84654745    -0.77100
O795        O  0.58515864  0.60485719  0.74639619    -0.75300
O796        O  0.60298479  0.69122768  0.77978913    -1.11500
O797        O  0.57855893  0.68461628  0.70752484    -0.70700
C798        C  0.60717733  0.70730323  0.69553725     1.00100
C799        C  0.63244232  0.75796553  0.84352338     0.96400
Al800      Al  0.62655818  0.65773613  0.81585420     1.55600
O801        O  0.57351092  0.78021964  0.75460034    -0.75300
C802        C  0.60332027  0.57707397  0.76747969     1.00600
C803        C  0.68962880  0.69467330  0.77694004     0.95500
O804        O  0.67229210  0.73461974  0.77424143    -0.80600
O805        O  0.87843791  0.23084876  0.71704655    -0.80100
C806        C  0.79887192  0.14703942  0.83734968     0.99300
O807        O  0.78964542  0.14315534  0.80324571    -0.69200
O808        O  0.78258119  0.22200442  0.76338468    -0.72800
Al809      Al  0.81267565  0.16590070  0.75720909     1.49000
C810        C  0.79007754  0.26578599  0.75653574     0.94500
O811        O  0.86586695  0.27629069  0.81569446    -0.79000
O812        O  0.92321281  0.15647136  0.78867626    -0.72600
Al813      Al  0.87079575  0.25011731  0.76664504     1.90100
O814        O  0.89206684  0.21376963  0.84387338    -0.71600
O815        O  0.86705425  0.09303642  0.79752918    -0.71500
O816        O  0.83243490  0.15651517  0.84662637    -0.77100
O817        O  0.83537799  0.10496261  0.74635968    -0.75300
O818        O  0.85304301  0.19120641  0.77985204    -1.11500
O819        O  0.82853194  0.18477699  0.70757273    -0.70700
C820        C  0.85723474  0.20727061  0.69556774     1.00100
C821        C  0.88243422  0.25805403  0.84351236     0.96400
Al822      Al  0.87654304  0.15777087  0.81597675     1.55600
O823        O  0.82358740  0.28008015  0.75448308    -0.75300
C824        C  0.85340388  0.07714796  0.76753924     1.00600
C825        C  0.93967567  0.19453079  0.77709839     0.95500
O826        O  0.92237867  0.23450657  0.77434970    -0.80600
O827        O  0.87834579  0.77857831  0.78967314    -0.80100
C828        C  0.79888022  0.86255030  0.66938813     0.99300
O829        O  0.78962100  0.86637007  0.70348772    -0.69200
O830        O  0.78252058  0.78753778  0.74336690    -0.72800
Al831      Al  0.81263544  0.84363629  0.74953127     1.49000
C832        C  0.79000599  0.74373986  0.75016400     0.94500
O833        O  0.86580347  0.73328389  0.69099124    -0.79000
O834        O  0.92320930  0.85300875  0.71813312    -0.72600
Al835      Al  0.87072299  0.75938405  0.74005962     1.90100
O836        O  0.89205659  0.79581626  0.66287410    -0.71600
O837        O  0.86709740  0.91651078  0.70928177    -0.71500
O838        O  0.83245794  0.85312885  0.66012856    -0.77100
O839        O  0.83532293  0.90458493  0.76038802    -0.75300
O840        O  0.85300610  0.81832950  0.72689033    -1.11500
O841        O  0.82850005  0.82475722  0.79916270    -0.70700
C842        C  0.85717482  0.80219469  0.81115758     1.00100
C843        C  0.88240089  0.75153984  0.66319939     0.96400
Al844      Al  0.87655049  0.85179100  0.69080271     1.55600
O845        O  0.82351000  0.72942858  0.75217667    -0.75300
C846        C  0.85339882  0.93239620  0.73924829     1.00600
C847        C  0.93964038  0.81491536  0.72969012     0.95500
O848        O  0.92231520  0.77495582  0.73239443    -0.80600
C849        C  0.85717667  0.02616824  0.75771764    -0.11500
C850        C  0.85717543  0.98337077  0.74908639    -0.13100
C851        C  0.72882269  0.69523650  0.76698382    -0.11500
C852        C  0.75924745  0.71111776  0.75807120    -0.13100
C853        C  0.50926510  0.79852354  0.74855039    -0.11500
C854        C  0.97883694  0.81438361  0.73963258    -0.13100
C855        C  0.75931707  0.29839478  0.74861693    -0.11500
C856        C  0.72887097  0.31421633  0.73971866    -0.13100
C857        C  0.50932348  0.21081093  0.75826950    -0.11500
C858        C  0.97887878  0.19499913  0.76718185    -0.13100
C859        C  0.60707097  0.52607357  0.75765989    -0.11500
C860        C  0.60707614  0.48325917  0.74904872    -0.13100
C861        C  0.77022678  0.86729533  0.64049569    -0.11500
C862        C  0.74618630  0.86727657  0.61621755    -0.13100
C863        C  0.64151280  0.78673674  0.87573847    -0.11500
C864        C  0.65083197  0.80001591  0.90645294    -0.13100
C865        C  0.61558363  0.70935071  0.65642246    -0.11500
C866        C  0.62491440  0.72264341  0.62571880    -0.13100
C867        C  0.65923039  0.02610175  0.49902210    -0.11500
C868        C  0.65923013  0.98330214  0.50764964    -0.13100
C869        C  0.64153052  0.22252570  0.63106466    -0.11500
C870        C  0.65083839  0.20926398  0.60034174    -0.13100
C871        C  0.61561996  0.30009821  0.85036376    -0.11500
C872        C  0.62493300  0.28684295  0.88108210    -0.13100
C873        C  0.77020324  0.14228771  0.86622651    -0.11500
C874        C  0.74616381  0.14228256  0.89050534    -0.13100
C875        C  0.53752465  0.19504137  0.98961288    -0.11500
C876        C  0.50708731  0.21088791  0.99851095    -0.13100
C877        C  0.75710375  0.29838018  0.50816630    -0.11500
C878        C  0.78754018  0.31423824  0.51706439    -0.13100
C879        C  0.52022224  0.36691992  0.64053634    -0.11500
C880        C  0.99619731  0.36694402  0.61624106    -0.13100
C881        C  0.86559431  0.20934661  0.65643644    -0.11500
C882        C  0.87490191  0.22261088  0.62571385    -0.13100
C883        C  0.89147068  0.28689487  0.87569515    -0.11500
C884        C  0.90078730  0.30017302  0.90640785    -0.13100
C885        C  0.99619090  0.64241069  0.89053032    -0.11500
C886        C  0.52021642  0.64239485  0.86623495    -0.13100
C887        C  0.50711622  0.79860269  0.50819220    -0.11500
C888        C  0.53755159  0.81443110  0.51711956    -0.13100
C889        C  0.75712479  0.71108770  0.99865476    -0.11500
C890        C  0.78756230  0.69525409  0.98973629    -0.13100
C891        C  0.90932276  0.52616581  0.49911618    -0.11500
C892        C  0.90932525  0.48335296  0.50773238    -0.13100
C893        C  0.87487352  0.78680564  0.88099391    -0.11500
C894        C  0.86554472  0.80009080  0.85028394    -0.13100
C895        C  0.90078415  0.70944523  0.60030624    -0.11500
C896        C  0.89145145  0.72272455  0.63101149    -0.13100
loop_ 
_geom_bond_atom_site_label_1 
_geom_bond_atom_site_label_2 
_geom_bond_distance 
_geom_bond_site_symmetry_2 
_ccdc_geom_bond_type 
O1           C16   1.256       .  A
O1         Al233   1.874   1_554  S
C2           O12   1.265       .  A
C2            O3   1.270       .  A
C2          C213   1.458       .  S
O3         Al229   1.944       .  S
O4            C6   1.253       .  A
O4         Al229   1.886       .  S
Al5          O13   1.895   1_556  S
Al5          O15   1.936   1_556  S
Al5         O227   1.944       .  S
Al5         O228   1.886       .  S
Al5         O238   1.789       .  S
C6           O19   1.256       .  A
C6          C887   1.440       .  S
O7           C17   1.261       .  A
O7           Al9   1.907       .  S
O8           C21   1.266       .  A
O8          Al18   1.927       .  S
Al9          O22   1.903       .  S
Al9          O19   1.917       .  S
Al9         O225   1.874       .  S
Al9          O14   1.797       .  S
O10          C17   1.261       .  A
O10         Al18   1.912       .  S
O11          C20   1.257       .  A
O11         Al18   1.922       .  S
O12         Al18   1.915       .  S
O13         C244   1.252   1_554  A
O14         Al18   1.793       .  S
O14        Al229   1.789       .  S
O15          C16   1.267       .  A
C16         C223   1.434       .  S
C17         C221   1.435       .  S
C20         O237   1.252       .  A
C20         C443   1.447       .  S
C21          O22   1.260       .  A
C21         C218   1.438       .  S
O23          C38   1.256       .  A
O23        Al255   1.874       .  S
C24          O34   1.265       .  A
C24          O25   1.270       .  A
C24         C208   1.458       .  S
O25         Al27   1.944       .  S
O26          C28   1.253       .  A
O26         Al27   1.886       .  S
Al27        O259   1.895   1_554  S
Al27        O261   1.936   1_554  S
Al27         O36   1.789       .  S
C28          O41   1.256       .  A
C28         C876   1.440   1_554  S
O29          C39   1.261       .  A
O29         Al31   1.907       .  S
O30          C43   1.266       .  A
O30         Al40   1.926       .  S
Al31         O44   1.902       .  S
Al31         O41   1.917       .  S
Al31        O247   1.874   1_554  S
Al31         O36   1.797       .  S
O32          C39   1.261       .  A
O32         Al40   1.912       .  S
O33          C42   1.257       .  A
O33         Al40   1.922       .  S
O34         Al40   1.915       .  S
O35         C266   1.252       .  A
O35        Al251   1.895       .  S
O36         Al40   1.793       .  S
O37          C38   1.267       .  A
O37        Al251   1.936       .  S
C38         C212   1.435       .  S
C39         C210   1.435       .  S
C42         O259   1.252   1_554  A
C42         C220   1.447       .  S
C43          O44   1.260       .  A
C43         C206   1.438       .  S
O45          C60   1.256       .  A
O45        Al277   1.874   1_554  S
C46          O56   1.265       .  A
C46          O47   1.270       .  A
C46         C202   1.458       .  S
O47        Al273   1.944       .  S
O48          C50   1.253       .  A
O48        Al273   1.886       .  S
Al49         O57   1.895   1_556  S
Al49         O59   1.936   1_556  S
Al49        O271   1.944       .  S
Al49        O272   1.886       .  S
Al49        O282   1.788       .  S
C50          O63   1.256       .  A
C50         C429   1.440       .  S
O51          C61   1.261       .  A
O51         Al53   1.907       .  S
O52          C65   1.266       .  A
O52         Al62   1.926       .  S
Al53         O66   1.903       .  S
Al53         O63   1.918       .  S
Al53        O269   1.874       .  S
Al53         O58   1.796       .  S
O54          C61   1.261       .  A
O54         Al62   1.912       .  S
O55          C64   1.257       .  A
O55         Al62   1.922       .  S
O56         Al62   1.915       .  S
O57         C288   1.252   1_554  A
O58         Al62   1.793       .  S
O58        Al273   1.788       .  S
O59          C60   1.267       .  A
C60         C198   1.435       .  S
C61         C200   1.434       .  S
C64         O281   1.252       .  A
C64         C419   1.447       .  S
C65          O66   1.260       .  A
C65         C203   1.438       .  S
O67          C82   1.256       .  A
O67        Al299   1.874       .  S
C68          O78   1.265       .  A
C68          O69   1.270       .  A
C68         C190   1.458       .  S
O69         Al71   1.944       .  S
O70          C72   1.253       .  A
O70         Al71   1.886       .  S
Al71        O303   1.895   1_554  S
Al71        O305   1.936   1_554  S
Al71         O80   1.788       .  S
C72          O85   1.256       .  A
C72         C441   1.440   1_554  S
O73          C83   1.261       .  A
O73         Al75   1.907       .  S
O74          C87   1.266       .  A
O74         Al84   1.926       .  S
Al75         O88   1.903       .  S
Al75         O85   1.918       .  S
Al75        O291   1.874   1_554  S
Al75         O80   1.796       .  S
O76          C83   1.261       .  A
O76         Al84   1.913       .  S
O77          C86   1.257       .  A
O77         Al84   1.922       .  S
O78         Al84   1.915       .  S
O79         C310   1.252       .  A
O79        Al295   1.895       .  S
O80         Al84   1.792       .  S
O81          C82   1.267       .  A
O81        Al295   1.936       .  S
C82         C192   1.435       .  S
C83         C194   1.434       .  S
C86         O303   1.252   1_554  A
C86         C196   1.447       .  S
C87          O88   1.260       .  A
C87         C216   1.438       .  S
O89         C104   1.256       .  A
O89         Al97   1.874       .  S
C90         O100   1.265       .  A
C90          O91   1.270       .  A
C90         C207   1.458       .  S
O91         Al93   1.944       .  S
O92          C94   1.253       .  A
O92         Al93   1.885       .  S
Al93        O101   1.895       .  S
Al93        O103   1.936       .  S
Al93        O102   1.789       .  S
C94         O107   1.256       .  A
C94         C185   1.440       .  S
O95         C105   1.261       .  A
O95         Al97   1.907       .  S
O96         C109   1.266       .  A
O96        Al106   1.926       .  S
Al97        O110   1.902       .  S
Al97        O107   1.918       .  S
Al97        O102   1.797       .  S
O98         C105   1.261       .  A
O98        Al106   1.912       .  S
O99         C108   1.257       .  A
O99        Al106   1.922       .  S
O100       Al106   1.915       .  S
O101        C108   1.252       .  A
O102       Al106   1.793       .  S
O103        C104   1.267       .  A
C104        C199   1.435       .  S
C105        C197   1.435       .  S
C108        C188   1.447       .  S
C109        O110   1.260       .  A
C109        C184   1.438       .  S
O111        C126   1.256       .  A
O111       Al119   1.874       .  S
C112        O122   1.265       .  A
C112        O113   1.270       .  A
C112        C214   1.458       .  S
O113       Al115   1.944       .  S
O114        C116   1.253       .  A
O114       Al115   1.886       .  S
Al115       O123   1.895       .  S
Al115       O125   1.936       .  S
Al115       O124   1.789       .  S
C116        O129   1.256       .  A
C116        C181   1.440       .  S
O117        C127   1.261       .  A
O117       Al119   1.907       .  S
O118        C131   1.266       .  A
O118       Al128   1.927       .  S
Al119       O132   1.902       .  S
Al119       O129   1.917       .  S
Al119       O124   1.797       .  S
O120        C127   1.261       .  A
O120       Al128   1.912       .  S
O121        C130   1.257       .  A
O121       Al128   1.922       .  S
O122       Al128   1.915       .  S
O123        C130   1.252       .  A
O124       Al128   1.793       .  S
O125        C126   1.267       .  A
C126        C193   1.434       .  S
C127        C191   1.435       .  S
C130        C187   1.447       .  S
C131        O132   1.260       .  A
C131        C179   1.438       .  S
O133        C148   1.256       .  A
O133       Al141   1.874       .  S
C134        O144   1.265       .  A
C134        O135   1.270       .  A
C134        C201   1.458       .  S
O135       Al137   1.944       .  S
O136        C138   1.253       .  A
O136       Al137   1.886       .  S
Al137       O145   1.895       .  S
Al137       O147   1.936       .  S
Al137       O146   1.788       .  S
C138        O151   1.256       .  A
C138        C183   1.440       .  S
O139        C149   1.261       .  A
O139       Al141   1.907       .  S
O140        C153   1.266       .  A
O140       Al150   1.926       .  S
Al141       O154   1.903       .  S
Al141       O151   1.918       .  S
Al141       O146   1.796       .  S
O142        C149   1.261       .  A
O142       Al150   1.912       .  S
O143        C152   1.257       .  A
O143       Al150   1.922       .  S
O144       Al150   1.915       .  S
O145        C152   1.252       .  A
O146       Al150   1.792       .  S
O147        C148   1.267       .  A
C148        C209   1.435       .  S
C149        C211   1.435       .  S
C152        C177   1.446       .  S
C153        O154   1.260       .  A
C153        C186   1.438       .  S
O155        C170   1.256       .  A
O155       Al163   1.874       .  S
C156        O166   1.265       .  A
C156        O157   1.270       .  A
C156        C189   1.458       .  S
O157       Al159   1.944       .  S
O158        C160   1.253       .  A
O158       Al159   1.886       .  S
Al159       O167   1.895       .  S
Al159       O169   1.936       .  S
Al159       O168   1.788       .  S
C160        O173   1.256       .  A
C160        C180   1.440       .  S
O161        C171   1.261       .  A
O161       Al163   1.906       .  S
O162        C175   1.266       .  A
O162       Al172   1.926       .  S
Al163       O176   1.903       .  S
Al163       O173   1.918       .  S
Al163       O168   1.796       .  S
O164        C171   1.261       .  A
O164       Al172   1.912       .  S
O165        C174   1.257       .  A
O165       Al172   1.922       .  S
O166       Al172   1.915       .  S
O167        C174   1.252       .  A
O168       Al172   1.793       .  S
O169        C170   1.267       .  A
C170        C222   1.435       .  S
C171        C224   1.434       .  S
C174        C178   1.447       .  S
C175        O176   1.260       .  A
C175        C182   1.438       .  S
C177        C178   1.213   1_545  T
C179        C180   1.209       .  T
C181        C630   1.209   1_455  T
C182        C629   1.209       .  T
C183        C184   1.209       .  T
C185        C634   1.209   1_455  T
C186        C633   1.209       .  T
C187        C188   1.213       .  T
C189        C190   1.220       .  T
C191        C192   1.206       .  T
C193        C194   1.206       .  T
C195        C288   1.447       .  S
C195        C196   1.213   1_546  T
C197        C198   1.206       .  T
C199        C200   1.206       .  T
C201        C202   1.220       .  T
C203        C204   1.209       .  T
C204        C700   1.440   1_455  S
C205        C274   1.440       .  S
C205        C206   1.209       .  T
C207        C656   1.220   1_455  T
C208        C655   1.220       .  T
C209        C210   1.206       .  T
C211        C212   1.206       .  T
C213        C662   1.220       .  T
C214        C661   1.220   1_455  T
C215        C678   1.440   1_455  S
C215        C216   1.209       .  T
C217        C296   1.440       .  S
C217        C218   1.209       .  T
C219        C244   1.447       .  S
C219        C220   1.213   1_556  T
C221        C222   1.206       .  T
C223        C224   1.206       .  T
O225        C240   1.256       .  A
C226        O236   1.265       .  A
C226        O227   1.270       .  A
C226        C437   1.458       .  S
O228        C230   1.253   1_556  A
Al229       O237   1.895       .  S
Al229       O239   1.936       .  S
C230        O243   1.256       .  A
C230        C663   1.440       .  S
O231        C241   1.261       .  A
O231       Al233   1.907       .  S
O232        C245   1.266       .  A
O232       Al242   1.927       .  S
Al233       O246   1.903       .  S
Al233       O243   1.917   1_556  S
Al233       O238   1.797       .  S
O234        C241   1.261       .  A
O234       Al242   1.912       .  S
O235        C244   1.257       .  A
O235       Al242   1.922       .  S
O236       Al242   1.915       .  S
O238       Al242   1.793       .  S
O239        C240   1.267       .  A
C240        C447   1.434       .  S
C241        C445   1.435       .  S
C245        O246   1.260       .  A
C245        C442   1.438       .  S
O247        C262   1.256       .  A
C248        O258   1.265       .  A
C248        O249   1.270       .  A
C248        C432   1.458       .  S
O249       Al251   1.944       .  S
O250        C252   1.253       .  A
O250       Al251   1.886       .  S
Al251       O260   1.789       .  S
C252        O265   1.256       .  A
C252        C652   1.440       .  S
O253        C263   1.261       .  A
O253       Al255   1.907       .  S
O254        C267   1.266       .  A
O254       Al264   1.926       .  S
Al255       O268   1.902       .  S
Al255       O265   1.917       .  S
Al255       O260   1.797       .  S
O256        C263   1.261       .  A
O256       Al264   1.912       .  S
O257        C266   1.257       .  A
O257       Al264   1.922       .  S
O258       Al264   1.915       .  S
O260       Al264   1.793       .  S
O261        C262   1.267       .  A
C262        C436   1.435       .  S
C263        C434   1.435       .  S
C266        C444   1.447       .  S
C267        O268   1.260       .  A
C267        C430   1.438       .  S
O269        C284   1.256       .  A
C270        O280   1.265       .  A
C270        O271   1.270       .  A
C270        C426   1.458       .  S
O272        C274   1.253   1_556  A
Al273       O281   1.895       .  S
Al273       O283   1.936       .  S
C274        O287   1.256       .  A
O275        C285   1.261       .  A
O275       Al277   1.907       .  S
O276        C289   1.266       .  A
O276       Al286   1.926       .  S
Al277       O290   1.903       .  S
Al277       O287   1.918   1_556  S
Al277       O282   1.796       .  S
O278        C285   1.261       .  A
O278       Al286   1.912       .  S
O279        C288   1.257       .  A
O279       Al286   1.922       .  S
O280       Al286   1.915       .  S
O282       Al286   1.793       .  S
O283        C284   1.267       .  A
C284        C422   1.435       .  S
C285        C424   1.434       .  S
C289        O290   1.260       .  A
C289        C427   1.438       .  S
O291        C306   1.256       .  A
C292        O302   1.265       .  A
C292        O293   1.270       .  A
C292        C414   1.458       .  S
O293       Al295   1.944       .  S
O294        C296   1.253       .  A
O294       Al295   1.886       .  S
Al295       O304   1.788       .  S
C296        O309   1.256       .  A
O297        C307   1.261       .  A
O297       Al299   1.907       .  S
O298        C311   1.266       .  A
O298       Al308   1.926       .  S
Al299       O312   1.903       .  S
Al299       O309   1.918       .  S
Al299       O304   1.796       .  S
O300        C307   1.261       .  A
O300       Al308   1.913       .  S
O301        C310   1.257       .  A
O301       Al308   1.922       .  S
O302       Al308   1.915       .  S
O304       Al308   1.792       .  S
O305        C306   1.267       .  A
C306        C416   1.435       .  S
C307        C418   1.434       .  S
C310        C420   1.447       .  S
C311        O312   1.260       .  A
C311        C440   1.438       .  S
O313        C328   1.256       .  A
O313       Al321   1.874       .  S
C314        O324   1.265       .  A
C314        O315   1.270       .  A
C314        C431   1.458       .  S
O315       Al317   1.944       .  S
O316        C318   1.253       .  A
O316       Al317   1.885       .  S
Al317       O325   1.895       .  S
Al317       O327   1.936       .  S
Al317       O326   1.789       .  S
C318        O331   1.256       .  A
C318        C409   1.440       .  S
O319        C329   1.261       .  A
O319       Al321   1.907       .  S
O320        C333   1.266       .  A
O320       Al330   1.926       .  S
Al321       O334   1.902       .  S
Al321       O331   1.918       .  S
Al321       O326   1.797       .  S
O322        C329   1.261       .  A
O322       Al330   1.912       .  S
O323        C332   1.257       .  A
O323       Al330   1.922       .  S
O324       Al330   1.915       .  S
O325        C332   1.252       .  A
O326       Al330   1.793       .  S
O327        C328   1.267       .  A
C328        C423   1.435       .  S
C329        C421   1.435       .  S
C332        C412   1.447       .  S
C333        O334   1.260       .  A
C333        C408   1.438       .  S
O335        C350   1.256       .  A
O335       Al343   1.874       .  S
C336        O346   1.265       .  A
C336        O337   1.270       .  A
C336        C438   1.458       .  S
O337       Al339   1.944       .  S
O338        C340   1.253       .  A
O338       Al339   1.886       .  S
Al339       O347   1.895       .  S
Al339       O349   1.936       .  S
Al339       O348   1.789       .  S
C340        O353   1.256       .  A
C340        C405   1.440       .  S
O341        C351   1.261       .  A
O341       Al343   1.907       .  S
O342        C355   1.266       .  A
O342       Al352   1.927       .  S
Al343       O356   1.902       .  S
Al343       O353   1.917       .  S
Al343       O348   1.797       .  S
O344        C351   1.261       .  A
O344       Al352   1.912       .  S
O345        C354   1.257       .  A
O345       Al352   1.922       .  S
O346       Al352   1.915       .  S
O347        C354   1.252       .  A
O348       Al352   1.793       .  S
O349        C350   1.267       .  A
C350        C417   1.434       .  S
C351        C415   1.435       .  S
C354        C411   1.447       .  S
C355        O356   1.260       .  A
C355        C403   1.438       .  S
O357        C372   1.256       .  A
O357       Al365   1.874       .  S
C358        O368   1.265       .  A
C358        O359   1.270       .  A
C358        C425   1.458       .  S
O359       Al361   1.944       .  S
O360        C362   1.253       .  A
O360       Al361   1.886       .  S
Al361       O369   1.895       .  S
Al361       O371   1.936       .  S
Al361       O370   1.788       .  S
C362        O375   1.256       .  A
C362        C407   1.440       .  S
O363        C373   1.261       .  A
O363       Al365   1.907       .  S
O364        C377   1.266       .  A
O364       Al374   1.926       .  S
Al365       O378   1.903       .  S
Al365       O375   1.918       .  S
Al365       O370   1.796       .  S
O366        C373   1.261       .  A
O366       Al374   1.912       .  S
O367        C376   1.257       .  A
O367       Al374   1.922       .  S
O368       Al374   1.915       .  S
O369        C376   1.252       .  A
O370       Al374   1.792       .  S
O371        C372   1.267       .  A
C372        C433   1.435       .  S
C373        C435   1.435       .  S
C376        C401   1.446       .  S
C377        O378   1.260       .  A
C377        C410   1.438       .  S
O379        C394   1.256       .  A
O379       Al387   1.874       .  S
C380        O390   1.265       .  A
C380        O381   1.270       .  A
C380        C413   1.458       .  S
O381       Al383   1.944       .  S
O382        C384   1.253       .  A
O382       Al383   1.886       .  S
Al383       O391   1.895       .  S
Al383       O393   1.936       .  S
Al383       O392   1.788       .  S
C384        O397   1.256       .  A
C384        C404   1.440       .  S
O385        C395   1.261       .  A
O385       Al387   1.906       .  S
O386        C399   1.266       .  A
O386       Al396   1.926       .  S
Al387       O400   1.903       .  S
Al387       O397   1.918       .  S
Al387       O392   1.796       .  S
O388        C395   1.261       .  A
O388       Al396   1.912       .  S
O389        C398   1.257       .  A
O389       Al396   1.922       .  S
O390       Al396   1.915       .  S
O391        C398   1.252       .  A
O392       Al396   1.793       .  S
O393        C394   1.267       .  A
C394        C446   1.435       .  S
C395        C448   1.434       .  S
C398        C402   1.447       .  S
C399        O400   1.260       .  A
C399        C406   1.438       .  S
C401        C402   1.213   1_545  T
C403        C404   1.209       .  T
C405        C854   1.209   1_455  T
C406        C853   1.209       .  T
C407        C408   1.209       .  T
C409        C858   1.209   1_455  T
C410        C857   1.209       .  T
C411        C412   1.213       .  T
C413        C414   1.220       .  T
C415        C416   1.206       .  T
C417        C418   1.206       .  T
C419        C420   1.213   1_545  T
C421        C422   1.206       .  T
C423        C424   1.206       .  T
C425        C426   1.220       .  T
C427        C428   1.209       .  T
C428        C476   1.440   1_456  S
C429        C430   1.209       .  T
C431        C880   1.220   1_455  T
C432        C879   1.220       .  T
C433        C434   1.206       .  T
C435        C436   1.206       .  T
C437        C886   1.220       .  T
C438        C885   1.220   1_455  T
C439        C454   1.440   1_455  S
C439        C440   1.209       .  T
C441        C442   1.209       .  T
C443        C444   1.213       .  T
C445        C446   1.206       .  T
C447        C448   1.206       .  T
O449        C464   1.256       .  A
O449       Al681   1.874   1_554  S
C450        O460   1.265       .  A
C450        O451   1.270       .  A
C450        C661   1.458       .  S
O451       Al677   1.944       .  S
O452        C454   1.253       .  A
O452       Al677   1.886       .  S
Al453       O675   1.944       .  S
Al453       O676   1.886       .  S
Al453       O461   1.895   1_556  S
Al453       O463   1.936   1_556  S
Al453       O686   1.789       .  S
C454        O467   1.256       .  A
O455        C465   1.261       .  A
O455       Al457   1.907       .  S
O456        C469   1.266       .  A
O456       Al466   1.927       .  S
Al457       O673   1.874       .  S
Al457       O470   1.903       .  S
Al457       O467   1.917       .  S
Al457       O462   1.797       .  S
O458        C465   1.261       .  A
O458       Al466   1.912       .  S
O459        C468   1.257       .  A
O459       Al466   1.922       .  S
O460       Al466   1.915       .  S
O461        C692   1.252   1_554  A
O462       Al677   1.789       .  S
O462       Al466   1.793       .  S
O463        C464   1.267       .  A
C464        C671   1.434       .  S
C465        C669   1.435       .  S
C468        O685   1.252       .  A
C468        C891   1.447       .  S
C469        O470   1.260       .  A
C469        C666   1.438       .  S
O471        C486   1.256       .  A
O471       Al703   1.874       .  S
C472        O482   1.265       .  A
C472        O473   1.270       .  A
C472        C656   1.458       .  S
O473       Al475   1.944       .  S
O474        C476   1.253       .  A
O474       Al475   1.886       .  S
Al475       O707   1.895   1_554  S
Al475       O709   1.936   1_554  S
Al475       O484   1.789       .  S
C476        O489   1.256       .  A
O477        C487   1.261       .  A
O477       Al479   1.907       .  S
O478        C491   1.266       .  A
O478       Al488   1.926       .  S
Al479       O695   1.874   1_554  S
Al479       O492   1.902       .  S
Al479       O489   1.917       .  S
Al479       O484   1.797       .  S
O480        C487   1.261       .  A
O480       Al488   1.912       .  S
O481        C490   1.257       .  A
O481       Al488   1.922       .  S
O482       Al488   1.915       .  S
O483        C714   1.252       .  A
O483       Al699   1.895       .  S
O484       Al488   1.793       .  S
O485        C486   1.267       .  A
O485       Al699   1.936       .  S
C486        C660   1.435       .  S
C487        C658   1.435       .  S
C490        O707   1.252   1_554  A
C490        C668   1.447       .  S
C491        O492   1.260       .  A
C491        C654   1.438       .  S
O493        C508   1.256       .  A
O493       Al725   1.874   1_554  S
C494        O504   1.265       .  A
C494        O495   1.270       .  A
C494        C650   1.458       .  S
O495       Al721   1.944       .  S
O496        C498   1.253       .  A
O496       Al721   1.886       .  S
Al497       O719   1.944       .  S
Al497       O720   1.886       .  S
Al497       O505   1.895   1_556  S
Al497       O507   1.936   1_556  S
Al497       O730   1.788       .  S
C498        O511   1.256       .  A
C498        C877   1.440       .  S
O499        C509   1.261       .  A
O499       Al501   1.907       .  S
O500        C513   1.266       .  A
O500       Al510   1.926       .  S
Al501       O717   1.874       .  S
Al501       O514   1.903       .  S
Al501       O511   1.918       .  S
Al501       O506   1.796       .  S
O502        C509   1.261       .  A
O502       Al510   1.912       .  S
O503        C512   1.257       .  A
O503       Al510   1.922       .  S
O504       Al510   1.915       .  S
O505        C736   1.252   1_554  A
O506       Al721   1.788       .  S
O506       Al510   1.793       .  S
O507        C508   1.267       .  A
C508        C646   1.435       .  S
C509        C648   1.434       .  S
C512        O729   1.252       .  A
C512        C867   1.447       .  S
C513        O514   1.260       .  A
C513        C651   1.438       .  S
O515        C530   1.256       .  A
O515       Al747   1.874       .  S
C516        O526   1.265       .  A
C516        O517   1.270       .  A
C516        C638   1.458       .  S
O517       Al519   1.944       .  S
O518        C520   1.253       .  A
O518       Al519   1.886       .  S
Al519       O751   1.895   1_554  S
Al519       O753   1.936   1_554  S
Al519       O528   1.788       .  S
C520        O533   1.256       .  A
C520        C889   1.440   1_554  S
O521        C531   1.261       .  A
O521       Al523   1.907       .  S
O522        C535   1.266       .  A
O522       Al532   1.926       .  S
Al523       O739   1.874   1_554  S
Al523       O536   1.903       .  S
Al523       O533   1.918       .  S
Al523       O528   1.796       .  S
O524        C531   1.261       .  A
O524       Al532   1.913       .  S
O525        C534   1.257       .  A
O525       Al532   1.922       .  S
O526       Al532   1.915       .  S
O527        C758   1.252       .  A
O527       Al743   1.895       .  S
O528       Al532   1.792       .  S
O529        C530   1.267       .  A
O529       Al743   1.936       .  S
C530        C640   1.435       .  S
C531        C642   1.434       .  S
C534        O751   1.252   1_554  A
C534        C644   1.447       .  S
C535        O536   1.260       .  A
C535        C664   1.438       .  S
O537        C552   1.256       .  A
O537       Al545   1.874       .  S
C538        O548   1.265       .  A
C538        O539   1.270       .  A
C538        C655   1.458       .  S
O539       Al541   1.944       .  S
O540        C542   1.253       .  A
O540       Al541   1.885       .  S
Al541       O549   1.895       .  S
Al541       O551   1.936       .  S
Al541       O550   1.789       .  S
C542        O555   1.256       .  A
C542        C633   1.440       .  S
O543        C553   1.261       .  A
O543       Al545   1.907       .  S
O544        C557   1.266       .  A
O544       Al554   1.926       .  S
Al545       O558   1.902       .  S
Al545       O555   1.918       .  S
Al545       O550   1.797       .  S
O546        C553   1.261       .  A
O546       Al554   1.912       .  S
O547        C556   1.257       .  A
O547       Al554   1.922       .  S
O548       Al554   1.915       .  S
O549        C556   1.252       .  A
O550       Al554   1.793       .  S
O551        C552   1.267       .  A
C552        C647   1.435       .  S
C553        C645   1.435       .  S
C556        C636   1.447       .  S
C557        O558   1.260       .  A
C557        C632   1.438       .  S
O559        C574   1.256       .  A
O559       Al567   1.874       .  S
C560        O570   1.265       .  A
C560        O561   1.270       .  A
C560        C662   1.458       .  S
O561       Al563   1.944       .  S
O562        C564   1.253       .  A
O562       Al563   1.886       .  S
Al563       O571   1.895       .  S
Al563       O573   1.936       .  S
Al563       O572   1.789       .  S
C564        O577   1.256       .  A
C564        C629   1.440       .  S
O565        C575   1.261       .  A
O565       Al567   1.907       .  S
O566        C579   1.266       .  A
O566       Al576   1.927       .  S
Al567       O580   1.902       .  S
Al567       O577   1.917       .  S
Al567       O572   1.797       .  S
O568        C575   1.261       .  A
O568       Al576   1.912       .  S
O569        C578   1.257       .  A
O569       Al576   1.922       .  S
O570       Al576   1.915       .  S
O571        C578   1.252       .  A
O572       Al576   1.793       .  S
O573        C574   1.267       .  A
C574        C641   1.434       .  S
C575        C639   1.435       .  S
C578        C635   1.447       .  S
C579        O580   1.260       .  A
C579        C627   1.438       .  S
O581        C596   1.256       .  A
O581       Al589   1.874       .  S
C582        O592   1.265       .  A
C582        O583   1.270       .  A
C582        C649   1.458       .  S
O583       Al585   1.944       .  S
O584        C586   1.253       .  A
O584       Al585   1.886       .  S
Al585       O593   1.895       .  S
Al585       O595   1.936       .  S
Al585       O594   1.788       .  S
C586        O599   1.256       .  A
C586        C631   1.440       .  S
O587        C597   1.261       .  A
O587       Al589   1.907       .  S
O588        C601   1.266       .  A
O588       Al598   1.926       .  S
Al589       O602   1.903       .  S
Al589       O599   1.918       .  S
Al589       O594   1.796       .  S
O590        C597   1.261       .  A
O590       Al598   1.912       .  S
O591        C600   1.257       .  A
O591       Al598   1.922       .  S
O592       Al598   1.915       .  S
O593        C600   1.252       .  A
O594       Al598   1.792       .  S
O595        C596   1.267       .  A
C596        C657   1.435       .  S
C597        C659   1.435       .  S
C600        C625   1.446       .  S
C601        O602   1.260       .  A
C601        C634   1.438       .  S
O603        C618   1.256       .  A
O603       Al611   1.874       .  S
C604        O614   1.265       .  A
C604        O605   1.270       .  A
C604        C637   1.458       .  S
O605       Al607   1.944       .  S
O606        C608   1.253       .  A
O606       Al607   1.886       .  S
Al607       O615   1.895       .  S
Al607       O617   1.936       .  S
Al607       O616   1.788       .  S
C608        O621   1.256       .  A
C608        C628   1.440       .  S
O609        C619   1.261       .  A
O609       Al611   1.906       .  S
O610        C623   1.266       .  A
O610       Al620   1.926       .  S
Al611       O624   1.903       .  S
Al611       O621   1.918       .  S
Al611       O616   1.796       .  S
O612        C619   1.261       .  A
O612       Al620   1.912       .  S
O613        C622   1.257       .  A
O613       Al620   1.922       .  S
O614       Al620   1.915       .  S
O615        C622   1.252       .  A
O616       Al620   1.793       .  S
O617        C618   1.267       .  A
C618        C670   1.435       .  S
C619        C672   1.434       .  S
C622        C626   1.447       .  S
C623        O624   1.260       .  A
C623        C630   1.438       .  S
C625        C626   1.213   1_545  T
C627        C628   1.209       .  T
C631        C632   1.209       .  T
C635        C636   1.213       .  T
C637        C638   1.220       .  T
C639        C640   1.206       .  T
C641        C642   1.206       .  T
C643        C736   1.447       .  S
C643        C644   1.213   1_546  T
C645        C646   1.206       .  T
C647        C648   1.206       .  T
C649        C650   1.220       .  T
C651        C652   1.209       .  T
C653        C722   1.440       .  S
C653        C654   1.209       .  T
C657        C658   1.206       .  T
C659        C660   1.206       .  T
C663        C664   1.209       .  T
C665        C744   1.440       .  S
C665        C666   1.209       .  T
C667        C692   1.447       .  S
C667        C668   1.213   1_556  T
C669        C670   1.206       .  T
C671        C672   1.206       .  T
O673        C688   1.256       .  A
C674        O684   1.265       .  A
C674        O675   1.270       .  A
C674        C885   1.458       .  S
O676        C678   1.253   1_556  A
Al677       O685   1.895       .  S
Al677       O687   1.936       .  S
C678        O691   1.256       .  A
O679        C689   1.261       .  A
O679       Al681   1.907       .  S
O680        C693   1.266       .  A
O680       Al690   1.927       .  S
Al681       O694   1.903       .  S
Al681       O691   1.917   1_556  S
Al681       O686   1.797       .  S
O682        C689   1.261       .  A
O682       Al690   1.912       .  S
O683        C692   1.257       .  A
O683       Al690   1.922       .  S
O684       Al690   1.915       .  S
O686       Al690   1.793       .  S
O687        C688   1.267       .  A
C688        C895   1.434       .  S
C689        C893   1.435       .  S
C693        O694   1.260       .  A
C693        C890   1.438       .  S
O695        C710   1.256       .  A
C696        O706   1.265       .  A
C696        O697   1.270       .  A
C696        C880   1.458       .  S
O697       Al699   1.944       .  S
O698        C700   1.253       .  A
O698       Al699   1.886       .  S
Al699       O708   1.789       .  S
C700        O713   1.256       .  A
O701        C711   1.261       .  A
O701       Al703   1.907       .  S
O702        C715   1.266       .  A
O702       Al712   1.926       .  S
Al703       O716   1.902       .  S
Al703       O713   1.917       .  S
Al703       O708   1.797       .  S
O704        C711   1.261       .  A
O704       Al712   1.912       .  S
O705        C714   1.257       .  A
O705       Al712   1.922       .  S
O706       Al712   1.915       .  S
O708       Al712   1.793       .  S
O709        C710   1.267       .  A
C710        C884   1.435       .  S
C711        C882   1.435       .  S
C714        C892   1.447       .  S
C715        O716   1.260       .  A
C715        C878   1.438       .  S
O717        C732   1.256       .  A
C718        O728   1.265       .  A
C718        O719   1.270       .  A
C718        C874   1.458       .  S
O720        C722   1.253   1_556  A
Al721       O729   1.895       .  S
Al721       O731   1.936       .  S
C722        O735   1.256       .  A
O723        C733   1.261       .  A
O723       Al725   1.907       .  S
O724        C737   1.266       .  A
O724       Al734   1.926       .  S
Al725       O738   1.903       .  S
Al725       O735   1.918   1_556  S
Al725       O730   1.796       .  S
O726        C733   1.261       .  A
O726       Al734   1.912       .  S
O727        C736   1.257       .  A
O727       Al734   1.922       .  S
O728       Al734   1.915       .  S
O730       Al734   1.793       .  S
O731        C732   1.267       .  A
C732        C870   1.435       .  S
C733        C872   1.434       .  S
C737        O738   1.260       .  A
C737        C875   1.438       .  S
O739        C754   1.256       .  A
C740        O750   1.265       .  A
C740        O741   1.270       .  A
C740        C862   1.458       .  S
O741       Al743   1.944       .  S
O742        C744   1.253       .  A
O742       Al743   1.886       .  S
Al743       O752   1.788       .  S
C744        O757   1.256       .  A
O745        C755   1.261       .  A
O745       Al747   1.907       .  S
O746        C759   1.266       .  A
O746       Al756   1.926       .  S
Al747       O760   1.903       .  S
Al747       O757   1.918       .  S
Al747       O752   1.796       .  S
O748        C755   1.261       .  A
O748       Al756   1.913       .  S
O749        C758   1.257       .  A
O749       Al756   1.922       .  S
O750       Al756   1.915       .  S
O752       Al756   1.792       .  S
O753        C754   1.267       .  A
C754        C864   1.435       .  S
C755        C866   1.434       .  S
C758        C868   1.447       .  S
C759        O760   1.260       .  A
C759        C888   1.438       .  S
O761        C776   1.256       .  A
O761       Al769   1.874       .  S
C762        O772   1.265       .  A
C762        O763   1.270       .  A
C762        C879   1.458       .  S
O763       Al765   1.944       .  S
O764        C766   1.253       .  A
O764       Al765   1.885       .  S
Al765       O773   1.895       .  S
Al765       O775   1.936       .  S
Al765       O774   1.789       .  S
C766        O779   1.256       .  A
C766        C857   1.440       .  S
O767        C777   1.261       .  A
O767       Al769   1.907       .  S
O768        C781   1.266       .  A
O768       Al778   1.926       .  S
Al769       O782   1.902       .  S
Al769       O779   1.918       .  S
Al769       O774   1.797       .  S
O770        C777   1.261       .  A
O770       Al778   1.912       .  S
O771        C780   1.257       .  A
O771       Al778   1.922       .  S
O772       Al778   1.915       .  S
O773        C780   1.252       .  A
O774       Al778   1.793       .  S
O775        C776   1.267       .  A
C776        C871   1.435       .  S
C777        C869   1.435       .  S
C780        C860   1.447       .  S
C781        O782   1.260       .  A
C781        C856   1.438       .  S
O783        C798   1.256       .  A
O783       Al791   1.874       .  S
C784        O794   1.265       .  A
C784        O785   1.270       .  A
C784        C886   1.458       .  S
O785       Al787   1.944       .  S
O786        C788   1.253       .  A
O786       Al787   1.886       .  S
Al787       O795   1.895       .  S
Al787       O797   1.936       .  S
Al787       O796   1.789       .  S
C788        O801   1.256       .  A
C788        C853   1.440       .  S
O789        C799   1.261       .  A
O789       Al791   1.907       .  S
O790        C803   1.266       .  A
O790       Al800   1.927       .  S
Al791       O804   1.902       .  S
Al791       O801   1.917       .  S
Al791       O796   1.797       .  S
O792        C799   1.261       .  A
O792       Al800   1.912       .  S
O793        C802   1.257       .  A
O793       Al800   1.922       .  S
O794       Al800   1.915       .  S
O795        C802   1.252       .  A
O796       Al800   1.793       .  S
O797        C798   1.267       .  A
C798        C865   1.434       .  S
C799        C863   1.435       .  S
C802        C859   1.447       .  S
C803        O804   1.260       .  A
C803        C851   1.438       .  S
O805        C820   1.256       .  A
O805       Al813   1.874       .  S
C806        O816   1.265       .  A
C806        O807   1.270       .  A
C806        C873   1.458       .  S
O807       Al809   1.944       .  S
O808        C810   1.253       .  A
O808       Al809   1.886       .  S
Al809       O817   1.895       .  S
Al809       O819   1.936       .  S
Al809       O818   1.788       .  S
C810        O823   1.256       .  A
C810        C855   1.440       .  S
O811        C821   1.261       .  A
O811       Al813   1.907       .  S
O812        C825   1.266       .  A
O812       Al822   1.926       .  S
Al813       O826   1.903       .  S
Al813       O823   1.918       .  S
Al813       O818   1.796       .  S
O814        C821   1.261       .  A
O814       Al822   1.912       .  S
O815        C824   1.257       .  A
O815       Al822   1.922       .  S
O816       Al822   1.915       .  S
O817        C824   1.252       .  A
O818       Al822   1.792       .  S
O819        C820   1.267       .  A
C820        C881   1.435       .  S
C821        C883   1.435       .  S
C824        C849   1.446       .  S
C825        O826   1.260       .  A
C825        C858   1.438       .  S
O827        C842   1.256       .  A
O827       Al835   1.874       .  S
C828        O838   1.265       .  A
C828        O829   1.270       .  A
C828        C861   1.458       .  S
O829       Al831   1.944       .  S
O830        C832   1.253       .  A
O830       Al831   1.886       .  S
Al831       O839   1.895       .  S
Al831       O841   1.936       .  S
Al831       O840   1.788       .  S
C832        O845   1.256       .  A
C832        C852   1.440       .  S
O833        C843   1.261       .  A
O833       Al835   1.906       .  S
O834        C847   1.266       .  A
O834       Al844   1.926       .  S
Al835       O848   1.903       .  S
Al835       O845   1.918       .  S
Al835       O840   1.796       .  S
O836        C843   1.261       .  A
O836       Al844   1.912       .  S
O837        C846   1.257       .  A
O837       Al844   1.922       .  S
O838       Al844   1.915       .  S
O839        C846   1.252       .  A
O840       Al844   1.793       .  S
O841        C842   1.267       .  A
C842        C894   1.435       .  S
C843        C896   1.434       .  S
C846        C850   1.447       .  S
C847        O848   1.260       .  A
C847        C854   1.438       .  S
C849        C850   1.213   1_545  T
C851        C852   1.209       .  T
C855        C856   1.209       .  T
C859        C860   1.213       .  T
C861        C862   1.220       .  T
C863        C864   1.206       .  T
C865        C866   1.206       .  T
C867        C868   1.213   1_545  T
C869        C870   1.206       .  T
C871        C872   1.206       .  T
C873        C874   1.220       .  T
C875        C876   1.209       .  T
C877        C878   1.209       .  T
C881        C882   1.206       .  T
C883        C884   1.206       .  T
C887        C888   1.209       .  T
C889        C890   1.209       .  T
C891        C892   1.213       .  T
C893        C894   1.206       .  T
C895        C896   1.206       .  T
