geometry optimzed in LAMMPS
_audit_creation_date              2020-12-01 
_audit_creation_method            'lammps2cif' 
_symmetry_space_group_name_H-M    'P1' 
_symmetry_Int_Tables_number       1 
_symmetry_cell_setting            triclinic 
loop_ 
_symmetry_equiv_pos_as_xyz 
  x,y,z 
_cell_length_a                    72.20236849 
_cell_length_b                    38.27733097158193 
_cell_length_c                    71.5952920150684 
_cell_angle_alpha                 89.80480795654357 
_cell_angle_beta                  90.24729702654747 
_cell_angle_gamma                 89.97227430246117 
loop_ 
_atom_site_label 
_atom_site_type_symbol 
_atom_site_fract_x 
_atom_site_fract_y 
_atom_site_fract_z 
_atom_site_charge 
Zr1        Zr  0.61165325  0.23551969  0.85889939     2.17500
O2          O  0.58883198  0.20402285  0.84015582    -0.51400
O3          O  0.61868524  0.17420707  0.86617685    -0.74600
O4          O  0.62102297  0.22926683  0.82627096    -0.81400
O5          O  0.57512048  0.25676941  0.89581533    -0.83200
O6          O  0.64981698  0.25241744  0.82275681    -0.78800
O7          O  0.57851195  0.23607664  0.86630571    -0.90400
O8          O  0.64208003  0.17190916  0.88741647    -0.76400
O9          O  0.64430827  0.23246605  0.86383344    -0.85900
O10         O  0.61644390  0.23227371  0.89187599    -0.85600
O11         O  0.62395892  0.28843198  0.84533951    -0.72300
O12         O  0.59855564  0.28804795  0.87133635    -0.84500
Zr13       Zr  0.64917558  0.33522046  0.89650060     2.26400
Zr14       Zr  0.65668104  0.28533601  0.85095141     2.06300
Zr15       Zr  0.60391925  0.28518401  0.90417161     2.10000
Zr16       Zr  0.64906361  0.23053718  0.89676618     1.78800
O17         O  0.57903277  0.32619192  0.91080193    -0.93300
O18         O  0.67897289  0.20602565  0.88810136    -0.41100
O19         O  0.63653224  0.28268668  0.90988675    -0.77700
O20         O  0.66232899  0.28217319  0.88403696    -0.96400
O21         O  0.64431228  0.33839487  0.86354492    -0.89700
O22         O  0.61648056  0.33801160  0.89163651    -0.92500
C23         C  0.63038715  0.15752056  0.87644400     1.01200
C24         C  0.56874522  0.24286992  0.88083344     1.14100
C25         C  0.63547351  0.23634603  0.81654452     1.04900
O26         O  0.68284116  0.24781574  0.84344506    -0.94700
O27         O  0.68514401  0.31626706  0.85813721    -0.90400
O28         O  0.68158671  0.34141888  0.88667633    -0.83600
C29         C  0.69133272  0.33297225  0.87236701     1.11600
O30         O  0.58885048  0.33783267  0.83359382    -0.96700
Zr31       Zr  0.61165486  0.34031251  0.85876469     1.88900
O32         O  0.64168034  0.39658126  0.88959695    -0.73300
O33         O  0.66155261  0.32525340  0.82487142    -0.52600
O34         O  0.62246937  0.36830721  0.83020164    -0.97300
O35         O  0.58184613  0.36535434  0.86739065    -0.54500
O36         O  0.61895067  0.39906688  0.86760200    -0.73800
C37         C  0.63032245  0.41334071  0.87893658     0.98500
O38         O  0.66874115  0.36366874  0.91983132    -0.62700
O39         O  0.59543390  0.24564084  0.92946394    -0.57500
O40         O  0.64084260  0.33943418  0.92961894    -0.94100
O41         O  0.61255792  0.31409305  0.93277390    -0.92600
O42         O  0.63978134  0.20224315  0.92576008    -0.92900
O43         O  0.67224830  0.23355350  0.92151593    -0.91700
C44         C  0.62649759  0.33098617  0.93921949     1.17400
H45         H  0.61035878  0.21216349  0.89725359     0.33300
H46         H  0.67534763  0.27977411  0.88680383     0.44100
H47         H  0.61117629  0.35798863  0.89786253     0.37700
H48         H  0.62121591  0.29071680  0.83220749     0.34200
H49         H  0.67901234  0.18211389  0.89342389     0.25900
H50         H  0.67113213  0.31382122  0.81714957     0.31900
H51         H  0.63392572  0.38080699  0.83384090     0.37800
H52         H  0.64622997  0.17940356  0.92572200     0.32200
H53         H  0.60738869  0.23807948  0.93495942     0.31100
H54         H  0.57149374  0.31446078  0.92048623     0.32800
H55         H  0.58444013  0.38025480  0.87836688     0.31800
H56         H  0.67366099  0.25883662  0.92402827     0.35800
H57         H  0.67951460  0.34804427  0.92182282     0.28500
H58         H  0.59545895  0.18363485  0.83494124     0.32700
H59         H  0.58556303  0.36244638  0.83083409     0.35600
H60         H  0.58979985  0.26070806  0.93911357     0.28200
H61         H  0.67381157  0.38474052  0.91363426     0.41100
H62         H  0.68861306  0.25887377  0.83238591     0.31100
H63         H  0.67814371  0.20246973  0.87443576     0.38700
H64         H  0.57466335  0.34547248  0.87246359     0.30600
H65         H  0.65008439  0.32363691  0.81729433     0.30700
H66         H  0.58608117  0.21921994  0.82926474     0.30900
Zr67       Zr  0.60928734  0.73571169  0.85791028     2.17500
O68         O  0.58571007  0.70803450  0.83836906    -0.51400
O69         O  0.61576674  0.67414516  0.86509940    -0.74600
O70         O  0.61872510  0.72836046  0.82524998    -0.81400
O71         O  0.57397869  0.75561922  0.89637807    -0.83200
O72         O  0.64708036  0.75295985  0.82104174    -0.78800
O73         O  0.57669415  0.73381692  0.86697885    -0.90400
O74         O  0.63769378  0.67149015  0.88787723    -0.76400
O75         O  0.64199181  0.73274628  0.86212670    -0.85900
O76         O  0.61450997  0.73262295  0.89085917    -0.85600
O77         O  0.62122741  0.78867911  0.84416736    -0.72300
O78         O  0.59644404  0.78809064  0.87093651    -0.84500
Zr79       Zr  0.64794878  0.83517498  0.89448606     2.26400
Zr80       Zr  0.65413435  0.78576483  0.84902853     2.06300
Zr81       Zr  0.60266594  0.78569804  0.90373836     2.10000
Zr82       Zr  0.64713081  0.73023506  0.89500454     1.78800
O83         O  0.57686023  0.82422191  0.91103783    -0.93300
O84         O  0.67505013  0.69998671  0.88492155    -0.41100
O85         O  0.63543919  0.78294733  0.90848565    -0.77700
O86         O  0.66033363  0.78156258  0.88188133    -0.96400
O87         O  0.64191938  0.83877415  0.86174395    -0.89700
O88         O  0.61510053  0.83825791  0.89066977    -0.92500
C89         C  0.62639121  0.65725967  0.87642882     1.01200
C90         C  0.56737032  0.74060322  0.88179026     1.14100
C91         C  0.63291382  0.73596826  0.81522064     1.04900
O92         O  0.68010925  0.74851275  0.84061087    -0.94700
O93         O  0.68322224  0.81548755  0.85572551    -0.90400
O94         O  0.68078054  0.83739748  0.88511745    -0.83600
C95         C  0.69013862  0.82974608  0.87040175     1.11600
O96         O  0.58471414  0.83842689  0.83426360    -0.96700
Zr97       Zr  0.60904179  0.84038666  0.85799510     1.88900
O98         O  0.64145468  0.89654803  0.88631889    -0.73300
O99         O  0.65800512  0.82660222  0.82316057    -0.52600
O100        O  0.61756378  0.86809850  0.82853927    -0.97300
O101        O  0.57965095  0.86456629  0.86860558    -0.54500
O102        O  0.61718692  0.89906859  0.86610022    -0.73800
C103        C  0.62963601  0.91337496  0.87621202     0.98500
O104        O  0.66760495  0.86692873  0.91645912    -0.62700
O105        O  0.59727020  0.74641930  0.92998929    -0.57500
O106        O  0.63981128  0.84022694  0.92763674    -0.94100
O107        O  0.61093276  0.81777076  0.93172923    -0.92600
O108        O  0.63951024  0.70671469  0.92564965    -0.92900
O109        O  0.67298192  0.73348731  0.91687172    -0.91700
C110        C  0.62539498  0.83388561  0.93761306     1.17400
H111        H  0.60839835  0.71269510  0.89638101     0.33300
H112        H  0.67333675  0.77805646  0.88430941     0.44100
H113        H  0.61013800  0.85841156  0.89702049     0.37700
H114        H  0.61819804  0.79066087  0.83107562     0.34200
H115        H  0.67509028  0.67767929  0.89197140     0.25900
H116        H  0.66623982  0.81438915  0.81429179     0.31900
H117        H  0.61418851  0.89303037  0.82990888     0.37800
H118        H  0.64525302  0.68322061  0.92592578     0.32200
H119        H  0.60918402  0.74588502  0.93688075     0.31100
H120        H  0.57005592  0.81204785  0.92111711     0.32800
H121        H  0.58263858  0.87783980  0.88006695     0.31800
H122        H  0.67230412  0.75742233  0.92202753     0.35800
H123        H  0.67783506  0.85082137  0.91983297     0.28500
H124        H  0.59156937  0.68675858  0.83322587     0.32700
H125        H  0.58094716  0.86301393  0.83212915     0.35600
H126        H  0.58875487  0.75936620  0.93827446     0.28200
H127        H  0.67348532  0.88586677  0.90912797     0.41100
H128        H  0.68597320  0.76046282  0.82986898     0.31100
H129        H  0.67251510  0.69310715  0.87184043     0.38700
H130        H  0.57248228  0.84415188  0.87306225     0.30600
H131        H  0.64580301  0.82707421  0.81680833     0.30700
H132        H  0.58382630  0.72374396  0.82750160     0.30900
Zr133      Zr  0.61248990  0.20160821  0.64522551     2.17500
O134        O  0.59034992  0.23320871  0.66457433    -0.51400
O135        O  0.62020517  0.26267451  0.63799534    -0.74600
O136        O  0.62191664  0.20624602  0.67809979    -0.81400
O137        O  0.57573478  0.18451196  0.60734793    -0.83200
O138        O  0.65021986  0.18095903  0.68170318    -0.78800
O139        O  0.57957099  0.20498668  0.63690001    -0.90400
O140        O  0.64335600  0.26489720  0.61667618    -0.76400
O141        O  0.64518519  0.20305550  0.64041477    -0.85900
O142        O  0.61705450  0.20548592  0.61230963    -0.85600
O143        O  0.62389650  0.14760206  0.65845105    -0.72300
O144        O  0.59839486  0.15032693  0.63206998    -0.84500
Zr145      Zr  0.64867094  0.10102505  0.60757459     2.26400
Zr146      Zr  0.65662982  0.14905214  0.65318313     2.06300
Zr147      Zr  0.60397985  0.15366970  0.59925666     2.10000
Zr148      Zr  0.64956166  0.20576292  0.60739575     1.78800
O149        O  0.57645529  0.12067434  0.59056859    -0.93300
O150        O  0.68014354  0.22984407  0.61396723    -0.41100
O151        O  0.63669833  0.15406512  0.59385341    -0.77700
O152        O  0.66220376  0.15354056  0.62023520    -0.96400
O153        O  0.64334528  0.09704146  0.64036141    -0.89700
O154        O  0.61591708  0.10012971  0.61182577    -0.92500
C155        C  0.63169097  0.27936574  0.62757698     1.01200
C156        C  0.56970398  0.19919262  0.62223367     1.14100
C157        C  0.63624256  0.19803171  0.68789306     1.04900
O158        O  0.68356942  0.18260271  0.66309245    -0.94700
O159        O  0.68494702  0.11805238  0.64567084    -0.90400
O160        O  0.68149184  0.09476571  0.61666712    -0.83600
C161        C  0.69122432  0.10222855  0.63123658     1.11600
O162        O  0.58670416  0.10339455  0.66826474    -0.96700
Zr163      Zr  0.61055761  0.09703976  0.64450792     1.88900
O164        O  0.64197775  0.04000921  0.61592440    -0.73300
O165        O  0.66056586  0.10530575  0.67764719    -0.52600
O166        O  0.61750029  0.06917180  0.67439035    -0.97300
O167        O  0.58149084  0.07169593  0.63348162    -0.54500
O168        O  0.61887463  0.03785392  0.63735011    -0.73800
C169        C  0.63071686  0.02339882  0.62666078     0.98500
O170        O  0.66778444  0.07423962  0.58346977    -0.62700
O171        O  0.60091793  0.19590191  0.57388260    -0.57500
O172        O  0.63805370  0.09265420  0.57539106    -0.94100
O173        O  0.60982818  0.11843222  0.57192605    -0.92600
O174        O  0.63788672  0.23300345  0.57889790    -0.92900
O175        O  0.67255581  0.20231329  0.58266387    -0.91700
C176        C  0.62336052  0.09992002  0.56593635     1.17400
H177        H  0.61117056  0.22603691  0.60713721     0.33300
H178        H  0.67523449  0.15577195  0.61764310     0.44100
H179        H  0.61061362  0.08036242  0.60539213     0.37700
H180        H  0.62111288  0.14509892  0.67154066     0.34200
H181        H  0.67918822  0.25505614  0.61097918     0.25900
H182        H  0.67017000  0.11516314  0.68601314     0.31900
H183        H  0.62836954  0.05407381  0.67202560     0.37800
H184        H  0.64550250  0.25429591  0.57729317     0.32200
H185        H  0.60945697  0.18756518  0.56407493     0.31100
H186        H  0.57153246  0.13275666  0.57934664     0.32800
H187        H  0.58387314  0.06325753  0.62066988     0.31800
H188        H  0.67820592  0.17888028  0.58413543     0.35800
H189        H  0.67795893  0.09095819  0.58100720     0.28500
H190        H  0.59740665  0.25229416  0.67061285     0.32700
H191        H  0.58108926  0.07994568  0.66971175     0.35600
H192        H  0.58838325  0.19181312  0.56868109     0.28200
H193        H  0.67377958  0.05374842  0.58943452     0.41100
H194        H  0.67945786  0.20728106  0.66275884     0.31100
H195        H  0.68133961  0.22888502  0.62773546     0.38700
H196        H  0.57307839  0.09189947  0.63175187     0.30600
H197        H  0.64900825  0.10647879  0.68500150     0.30700
H198        H  0.58699260  0.21705363  0.67485394     0.30900
Zr199      Zr  0.60833787  0.70149137  0.64468565     2.17500
O200        O  0.58504533  0.72914201  0.66438687    -0.51400
O201        O  0.61586670  0.76265725  0.63844869    -0.74600
O202        O  0.61823410  0.70827242  0.67712086    -0.81400
O203        O  0.57169308  0.68345503  0.60685494    -0.83200
O204        O  0.64734574  0.68620487  0.68001561    -0.78800
O205        O  0.57570174  0.70559824  0.63603335    -0.90400
O206        O  0.63688959  0.76527229  0.61497479    -0.76400
O207        O  0.64088242  0.70424921  0.63950510    -0.85900
O208        O  0.61250586  0.70516305  0.61169551    -0.85600
O209        O  0.62044957  0.64841640  0.65822666    -0.72300
O210        O  0.59464222  0.64967555  0.63188584    -0.84500
Zr211      Zr  0.64447272  0.60122761  0.60724436     2.26400
Zr212      Zr  0.65311587  0.65120087  0.65234491     2.06300
Zr213      Zr  0.59977369  0.65277772  0.59899812     2.10000
Zr214      Zr  0.64496722  0.70624616  0.60650696     1.78800
O215        O  0.57174025  0.62117367  0.59046843    -0.93300
O216        O  0.67405946  0.73485056  0.61452472    -0.41100
O217        O  0.63231307  0.65393280  0.59342609    -0.77700
O218        O  0.65807771  0.65417872  0.61930639    -0.96400
O219        O  0.63990857  0.59836842  0.64015676    -0.89700
O220        O  0.61178423  0.59960987  0.61193175    -0.92500
C221        C  0.62629652  0.77949139  0.62705381     1.01200
C222        C  0.56581019  0.69886475  0.62153862     1.14100
C223        C  0.63308119  0.70205758  0.68647047     1.04900
O224        O  0.68047355  0.68772685  0.65609013    -0.94700
O225        O  0.68087143  0.61783014  0.64577128    -0.90400
O226        O  0.67699522  0.59401014  0.61694908    -0.83600
C227        C  0.68686194  0.60137230  0.63143783     1.11600
O228        O  0.58286405  0.60451522  0.66792871    -0.96700
Zr229      Zr  0.60722941  0.59719064  0.64478367     1.88900
O230        O  0.63736013  0.54013408  0.61490022    -0.73300
O231        O  0.65942581  0.61465196  0.67956014    -0.52600
O232        O  0.61722165  0.57146451  0.67433130    -0.97300
O233        O  0.57790900  0.56988487  0.63611583    -0.54500
O234        O  0.61468135  0.53785658  0.63673963    -0.73800
C235        C  0.62610933  0.52341997  0.62556353     0.98500
O236        O  0.66393130  0.57388380  0.58361505    -0.62700
O237        O  0.59730715  0.69473504  0.57343590    -0.57500
O238        O  0.63441898  0.59485184  0.57470522    -0.94100
O239        O  0.60554503  0.61795540  0.57155245    -0.92600
O240        O  0.63521044  0.73221111  0.57697447    -0.92900
O241        O  0.66874862  0.69958638  0.58275969    -0.91700
C242        C  0.61958928  0.60127365  0.56527967     1.17400
H243        H  0.60642120  0.72549419  0.60651879     0.33300
H244        H  0.67110718  0.65593897  0.61653194     0.44100
H245        H  0.60627319  0.57970341  0.60578942     0.37700
H246        H  0.61799830  0.64650361  0.67142959     0.34200
H247        H  0.67462499  0.75556546  0.60622018     0.25900
H248        H  0.66789458  0.62866860  0.68745417     0.31900
H249        H  0.61197691  0.54757304  0.67434417     0.37800
H250        H  0.64189416  0.75475800  0.57632026     0.32200
H251        H  0.60703454  0.68774126  0.56448759     0.31100
H252        H  0.56850451  0.62982513  0.57781725     0.32800
H253        H  0.58104805  0.55180413  0.62679769     0.31800
H254        H  0.66699437  0.67556352  0.57797251     0.35800
H255        H  0.67451323  0.58991969  0.58165119     0.28500
H256        H  0.59098255  0.75037973  0.66952086     0.32700
H257        H  0.58021971  0.58076386  0.67274497     0.35600
H258        H  0.58551594  0.68884309  0.56708760     0.28200
H259        H  0.66930127  0.55282316  0.58961836     0.41100
H260        H  0.68496971  0.68271039  0.66890452     0.31100
H261        H  0.67204168  0.74462577  0.62713994     0.38700
H262        H  0.57126289  0.58804370  0.62883296     0.30600
H263        H  0.64762493  0.61413776  0.68654644     0.30700
H264        H  0.58330747  0.71339072  0.67524506     0.30900
Zr265      Zr  0.39856014  0.19797400  0.85708639     2.17500
O266        O  0.42111763  0.22791714  0.83742722    -0.51400
O267        O  0.39149364  0.25893711  0.86437411    -0.74600
O268        O  0.38733436  0.20607696  0.82496773    -0.81400
O269        O  0.43611738  0.17856757  0.89394943    -0.83200
O270        O  0.35899590  0.18073505  0.82187469    -0.78800
O271        O  0.43163457  0.20072660  0.86474164    -0.90400
O272        O  0.36973681  0.26064092  0.88714780    -0.76400
O273        O  0.36605679  0.19967731  0.86258882    -0.85900
O274        O  0.39464941  0.20060975  0.89014499    -0.85600
O275        O  0.38659352  0.14488086  0.84360585    -0.72300
O276        O  0.41260110  0.14593284  0.86940600    -0.84500
Zr277      Zr  0.36290700  0.09657701  0.89488077     2.26400
Zr278      Zr  0.35394496  0.14653922  0.84987427     2.06300
Zr279      Zr  0.40792355  0.14800140  0.90238394     2.10000
Zr280      Zr  0.36217732  0.20142229  0.89556569     1.78800
O281        O  0.43395520  0.10915899  0.90859648    -0.93300
O282        O  0.33306650  0.22933790  0.88673228    -0.41100
O283        O  0.37538853  0.14916184  0.90826683    -0.77700
O284        O  0.34901123  0.14956063  0.88293324    -0.96400
O285        O  0.36734220  0.09377946  0.86195163    -0.89700
O286        O  0.39553728  0.09505861  0.88977111    -0.92500
C287        C  0.38066914  0.27531684  0.87553788     1.01200
C288        C  0.44182458  0.19395411  0.87909667     1.14100
C289        C  0.37265725  0.19852965  0.81556672     1.04900
O290        O  0.32717779  0.18335416  0.84326652    -0.94700
O291        O  0.32594507  0.11448818  0.85722706    -0.90400
O292        O  0.32999196  0.09052529  0.88608945    -0.83600
C293        C  0.31999013  0.09822956  0.87170363     1.11600
O294        O  0.42285321  0.09692762  0.83195142    -0.96700
Zr295      Zr  0.39996087  0.09330138  0.85686188     1.88900
O296        O  0.36977531  0.03561491  0.88676672    -0.73300
O297        O  0.34857806  0.10635538  0.82410182    -0.52600
O298        O  0.38928230  0.06668309  0.82786378    -0.97300
O299        O  0.43019366  0.06935504  0.86531526    -0.54500
O300        O  0.39314329  0.03396898  0.86565322    -0.73800
C301        C  0.38131024  0.01920204  0.87631810     0.98500
O302        O  0.34481961  0.06720765  0.91897897    -0.62700
O303        O  0.41401338  0.18879288  0.92773201    -0.57500
O304        O  0.37291446  0.09145383  0.92752754    -0.94100
O305        O  0.40114472  0.11704921  0.93111095    -0.92600
O306        O  0.37097932  0.22682712  0.92546569    -0.92900
O307        O  0.33839180  0.19518158  0.91936276    -0.91700
C308        C  0.38724918  0.09973125  0.93730010     1.17400
H309        H  0.40071031  0.22083070  0.89540278     0.33300
H310        H  0.33603533  0.15165333  0.88585325     0.44100
H311        H  0.40103928  0.07507284  0.89592936     0.37700
H312        H  0.38894834  0.14342799  0.83037531     0.34200
H313        H  0.33243338  0.25065538  0.89450415     0.25900
H314        H  0.33677084  0.11426418  0.81840938     0.31900
H315        H  0.39302023  0.04184225  0.82876633     0.37800
H316        H  0.36875076  0.25221779  0.92402485     0.32200
H317        H  0.40339608  0.18612473  0.93632720     0.31100
H318        H  0.43883342  0.11665827  0.92088643     0.32800
H319        H  0.42872935  0.06004295  0.87813440     0.31800
H320        H  0.34009029  0.17117610  0.92428402     0.35800
H321        H  0.33433155  0.08303185  0.92173610     0.28500
H322        H  0.41472699  0.24901371  0.83260537     0.32700
H323        H  0.42585813  0.07246178  0.82866097     0.35600
H324        H  0.42466605  0.17862035  0.93459729     0.28200
H325        H  0.33917071  0.04666687  0.91281710     0.41100
H326        H  0.32070614  0.18547027  0.85537444     0.31100
H327        H  0.33510775  0.23818097  0.87389299     0.38700
H328        H  0.43832497  0.08999372  0.86682585     0.30600
H329        H  0.35812130  0.11225175  0.81471806     0.30700
H330        H  0.42287571  0.21278080  0.82638415     0.30900
Zr331      Zr  0.39747750  0.69682204  0.85948114     2.17500
O332        O  0.41955515  0.72788641  0.83971718    -0.51400
O333        O  0.39061180  0.75813207  0.86658101    -0.74600
O334        O  0.38672180  0.70427529  0.82714817    -0.81400
O335        O  0.43454539  0.67750948  0.89687224    -0.83200
O336        O  0.35747938  0.68281228  0.82465472    -0.78800
O337        O  0.43057481  0.69764329  0.86717350    -0.90400
O338        O  0.36735463  0.76043135  0.88775406    -0.76400
O339        O  0.36493962  0.69924505  0.86457797    -0.85900
O340        O  0.39326850  0.70032686  0.89250320    -0.85600
O341        O  0.38535865  0.64357156  0.84612966    -0.72300
O342        O  0.41127060  0.64497222  0.87248741    -0.84500
Zr343      Zr  0.36111052  0.59702541  0.89765163     2.26400
Zr344      Zr  0.35272567  0.64612033  0.85196730     2.06300
Zr345      Zr  0.40612587  0.64782395  0.90539265     2.10000
Zr346      Zr  0.36074933  0.70162558  0.89750719     1.78800
O347        O  0.43247073  0.61109773  0.91373991    -0.93300
O348        O  0.33079847  0.72698024  0.88941286    -0.41100
O349        O  0.37353880  0.64966974  0.91094388    -0.77700
O350        O  0.34754169  0.64969145  0.88499886    -0.96400
O351        O  0.36586470  0.59372519  0.86473163    -0.89700
O352        O  0.39380355  0.59472730  0.89297758    -0.92500
C353        C  0.37897278  0.77484980  0.87673876     1.01200
C354        C  0.44055967  0.69147995  0.88175755     1.14100
C355        C  0.37160620  0.69889457  0.81804741     1.04900
O356        O  0.32475294  0.68007197  0.84612336    -0.94700
O357        O  0.32529182  0.61209537  0.85879061    -0.90400
O358        O  0.32866673  0.58999854  0.88812880    -0.83600
C359        C  0.31908557  0.59652190  0.87335779     1.11600
O360        O  0.41995556  0.59909861  0.83413612    -0.96700
Zr361      Zr  0.39854311  0.59236998  0.86015210     1.88900
O362        O  0.36779087  0.53575365  0.89040547    -0.73300
O363        O  0.34835134  0.60775373  0.82518219    -0.52600
O364        O  0.39064790  0.55794139  0.83272545    -0.97300
O365        O  0.42874787  0.57042863  0.87018153    -0.54500
O366        O  0.39102094  0.53347402  0.86912900    -0.73800
C367        C  0.37921574  0.51908401  0.87995836     0.98500
O368        O  0.34146606  0.57171990  0.92185785    -0.62700
O369        O  0.41130278  0.68774901  0.93132986    -0.57500
O370        O  0.37054823  0.59066640  0.93036566    -0.94100
O371        O  0.39915584  0.61483660  0.93335484    -0.92600
O372        O  0.37145227  0.72940422  0.92611895    -0.92900
O373        O  0.33784937  0.69787469  0.92229151    -0.91700
C374        C  0.38523360  0.59791639  0.93978783     1.17400
H375        H  0.39932861  0.72061572  0.89767005     0.33300
H376        H  0.33450454  0.65167014  0.88768383     0.44100
H377        H  0.39918095  0.57480455  0.89930575     0.37700
H378        H  0.38775009  0.64185395  0.83291566     0.34200
H379        H  0.33079277  0.75032149  0.89533607     0.25900
H380        H  0.33552396  0.61231601  0.82087926     0.31900
H381        H  0.37879365  0.56788510  0.82821210     0.37800
H382        H  0.36470637  0.75191093  0.92656510     0.32200
H383        H  0.40062960  0.68405072  0.93974732     0.31100
H384        H  0.43828876  0.62288574  0.92456496     0.32800
H385        H  0.42625244  0.55554638  0.88121902     0.31800
H386        H  0.33864409  0.67340912  0.92676320     0.35800
H387        H  0.33139147  0.58883948  0.92391959     0.28500
H388        H  0.41289050  0.74871457  0.83492910     0.32700
H389        H  0.42762875  0.57765546  0.83412202     0.35600
H390        H  0.42199987  0.67776576  0.93821029     0.28200
H391        H  0.33538849  0.55113637  0.91616047     0.41100
H392        H  0.31836719  0.66779238  0.83578808     0.31100
H393        H  0.33155680  0.73190846  0.87585342     0.38700
H394        H  0.43530505  0.59104139  0.87526962     0.30600
H395        H  0.35627007  0.61747211  0.81517891     0.30700
H396        H  0.42153827  0.71292386  0.82864402     0.30900
Zr397      Zr  0.39928272  0.23564927  0.64518341     2.17500
O398        O  0.42170775  0.20450456  0.66470609    -0.51400
O399        O  0.39292461  0.17412571  0.63814643    -0.74600
O400        O  0.38928022  0.22952840  0.67768902    -0.81400
O401        O  0.43633193  0.25971626  0.60929286    -0.83200
O402        O  0.35979792  0.24978552  0.68037006    -0.78800
O403        O  0.43238740  0.23552533  0.63806035    -0.90400
O404        O  0.37112848  0.17124984  0.61527253    -0.76400
O405        O  0.36684941  0.23121530  0.63954401    -0.85900
O406        O  0.39528245  0.23280800  0.61206697    -0.85600
O407        O  0.38616117  0.28789488  0.65854068    -0.72300
O408        O  0.41219552  0.28879895  0.63288304    -0.84500
Zr409      Zr  0.36134673  0.33478050  0.60737426     2.26400
Zr410      Zr  0.35361996  0.28329802  0.65225462     2.06300
Zr411      Zr  0.40727740  0.28648150  0.59992552     2.10000
Zr412      Zr  0.36281146  0.22979345  0.60652874     1.78800
O413        O  0.43288065  0.32431745  0.59095592    -0.93300
O414        O  0.33404445  0.20104348  0.61559207    -0.41100
O415        O  0.37472563  0.28310708  0.59379165    -0.77700
O416        O  0.34869900  0.28079003  0.61912071    -0.96400
O417        O  0.36583240  0.33712555  0.64034789    -0.89700
O418        O  0.39397829  0.33851028  0.61260198    -0.92500
C419        C  0.38225098  0.15716279  0.62698267     1.01200
C420        C  0.44241764  0.24417900  0.62398908     1.14100
C421        C  0.37438191  0.23513984  0.68698966     1.04900
O422        O  0.32788473  0.24324280  0.65703133    -0.94700
O423        O  0.32510327  0.31408814  0.64545852    -0.90400
O424        O  0.32862286  0.33918913  0.61684072    -0.83600
C425        C  0.31883698  0.33046873  0.63112635     1.11600
O426        O  0.42201851  0.33446525  0.66980982    -0.96700
Zr427      Zr  0.39844698  0.34026088  0.64549415     1.88900
O428        O  0.36741010  0.39633296  0.61511954    -0.73300
O429        O  0.34697504  0.32086623  0.67879281    -0.52600
O430        O  0.38946702  0.36622824  0.67513857    -0.97300
O431        O  0.42745394  0.36779909  0.63619165    -0.54500
O432        O  0.38918580  0.39908439  0.63808482    -0.73800
C433        C  0.37786070  0.41326741  0.62656774     0.98500
O434        O  0.34105155  0.36061251  0.58368856    -0.62700
O435        O  0.41350552  0.24563235  0.57470443    -0.57500
O436        O  0.37113859  0.34157034  0.57483640    -0.94100
O437        O  0.40031816  0.31981784  0.57205496    -0.92600
O438        O  0.37275129  0.20405428  0.57713781    -0.92900
O439        O  0.33932283  0.23071875  0.58202223    -0.91700
C440        C  0.38603820  0.33572700  0.56556389     1.17400
H441        H  0.40175581  0.21303632  0.60686737     0.33300
H442        H  0.33574269  0.27830470  0.61612763     0.44100
H443        H  0.39908476  0.35892086  0.60655353     0.37700
H444        H  0.38854963  0.29021641  0.67173091     0.34200
H445        H  0.33654320  0.19128128  0.62817780     0.25900
H446        H  0.33866354  0.30692073  0.68686601     0.31900
H447        H  0.37742070  0.37770250  0.67260307     0.37800
H448        H  0.38163651  0.18542825  0.58065205     0.32200
H449        H  0.40244683  0.24707426  0.56651645     0.31100
H450        H  0.44056421  0.30997603  0.58249867     0.32800
H451        H  0.42422423  0.38328289  0.62556713     0.31800
H452        H  0.33514305  0.25533981  0.58144431     0.35800
H453        H  0.33114786  0.34322634  0.58138775     0.28500
H454        H  0.41478862  0.18527410  0.67078431     0.32700
H455        H  0.42640559  0.35849357  0.67236464     0.35600
H456        H  0.42348978  0.25679604  0.56736755     0.28200
H457        H  0.33481391  0.38059681  0.58976475     0.41100
H458        H  0.32144599  0.25223519  0.66821068     0.31100
H459        H  0.32502711  0.22005917  0.61778039     0.38700
H460        H  0.43479006  0.34872093  0.63054937     0.30600
H461        H  0.35877922  0.32212043  0.68584603     0.30700
H462        H  0.42494894  0.22074901  0.67495242     0.30900
Zr463      Zr  0.39635916  0.73604269  0.64721549     2.17500
O464        O  0.42056963  0.71255589  0.66758441    -0.51400
O465        O  0.39050181  0.67444028  0.64005436    -0.74600
O466        O  0.38589525  0.72735912  0.67947271    -0.81400
O467        O  0.43307906  0.75980040  0.61077369    -0.83200
O468        O  0.35720298  0.75099076  0.68290464    -0.78800
O469        O  0.42925111  0.73479740  0.63938491    -0.90400
O470        O  0.36822036  0.67158091  0.61760245    -0.76400
O471        O  0.36382488  0.73187623  0.64189597    -0.85900
O472        O  0.39212190  0.73296999  0.61412013    -0.85600
O473        O  0.38353277  0.78816325  0.66074835    -0.72300
O474        O  0.40894732  0.78896924  0.63451149    -0.84500
Zr475      Zr  0.35866458  0.83509285  0.60938873     2.26400
Zr476      Zr  0.35096378  0.78426127  0.65465937     2.06300
Zr477      Zr  0.40408369  0.78632820  0.60156239     2.10000
Zr478      Zr  0.35959367  0.73015112  0.60887944     1.78800
O479        O  0.43080604  0.82152043  0.59287602    -0.93300
O480        O  0.33064833  0.70163568  0.61758170    -0.41100
O481        O  0.37154693  0.78314527  0.59575550    -0.77700
O482        O  0.34586199  0.78140301  0.62152491    -0.96400
O483        O  0.36311618  0.83780802  0.64235135    -0.89700
O484        O  0.39129841  0.83850322  0.61449536    -0.92500
C485        C  0.37969692  0.65748351  0.62899598     1.01200
C486        C  0.43916342  0.74383122  0.62530641     1.14100
C487        C  0.37138507  0.73442786  0.68913466     1.04900
O488        O  0.32428530  0.74770895  0.66179323    -0.94700
O489        O  0.32249812  0.81448521  0.64738978    -0.90400
O490        O  0.32616477  0.84067175  0.61905362    -0.83600
C491        C  0.31638271  0.83160299  0.63325310     1.11600
O492        O  0.41795153  0.83453340  0.67300280    -0.96700
Zr493      Zr  0.39567523  0.84043498  0.64746738     1.88900
O494        O  0.36558828  0.89658067  0.61640583    -0.73300
O495        O  0.34573244  0.82490885  0.68020831    -0.52600
O496        O  0.38301373  0.86790982  0.67528260    -0.97300
O497        O  0.42572686  0.86643149  0.64055904    -0.54500
O498        O  0.38839737  0.89921067  0.63832358    -0.73800
C499        C  0.37694637  0.91341883  0.62697298     0.98500
O500        O  0.33857713  0.86137414  0.58567807    -0.62700
O501        O  0.40926907  0.74416300  0.57672376    -0.57500
O502        O  0.36796014  0.84135811  0.57670490    -0.94100
O503        O  0.39712223  0.81978277  0.57355069    -0.92600
O504        O  0.36887384  0.70416371  0.57934262    -0.92900
O505        O  0.33596771  0.73298378  0.58452857    -0.91700
C506        C  0.38273289  0.83560753  0.56721598     1.17400
H507        H  0.39849769  0.71308246  0.60892738     0.33300
H508        H  0.33288223  0.77906811  0.61857030     0.44100
H509        H  0.39658659  0.85872146  0.60841493     0.37700
H510        H  0.38605480  0.78989391  0.67394405     0.34200
H511        H  0.33257953  0.69385819  0.63064528     0.25900
H512        H  0.33431354  0.81636488  0.68631578     0.31900
H513        H  0.39063155  0.88908681  0.67724225     0.37800
H514        H  0.37805396  0.68594860  0.58268773     0.32200
H515        H  0.39787452  0.74520641  0.56900762     0.31100
H516        H  0.43458140  0.81258043  0.58049922     0.32800
H517        H  0.42314236  0.88568773  0.63166163     0.31800
H518        H  0.33753440  0.75639588  0.57882558     0.35800
H519        H  0.32820212  0.84481350  0.58379866     0.28500
H520        H  0.41550400  0.69063815  0.67286864     0.32700
H521        H  0.42138322  0.85865270  0.67657146     0.35600
H522        H  0.41892063  0.75492980  0.56879427     0.28200
H523        H  0.33298039  0.88219313  0.59158546     0.41100
H524        H  0.32930010  0.72371757  0.66296488     0.31100
H525        H  0.32134582  0.72055498  0.61848892     0.38700
H526        H  0.43219825  0.84862370  0.63299769     0.30600
H527        H  0.35572598  0.81998134  0.68935628     0.30700
H528        H  0.42143895  0.72886106  0.67826940     0.30900
Zr529      Zr  0.89715896  0.98340614  0.64652715     2.17500
O530        O  0.91915489  0.95303699  0.66687774    -0.51400
O531        O  0.88938481  0.92271517  0.63878834    -0.74600
O532        O  0.88623910  0.97674345  0.67879963    -0.81400
O533        O  0.93492333  0.00407852  0.61074557    -0.83200
O534        O  0.85810625  0.00278739  0.68186170    -0.78800
O535        O  0.93004821  0.97732235  0.63870561    -0.90400
O536        O  0.86607828  0.92164917  0.61741844    -0.76400
O537        O  0.86451147  0.98335580  0.64131382    -0.85900
O538        O  0.89287129  0.98059253  0.61348258    -0.85600
O539        O  0.88626168  0.03761240  0.65973365    -0.72300
O540        O  0.91176235  0.03461984  0.63380505    -0.84500
Zr541      Zr  0.86260396  0.08608309  0.60830044     2.26400
Zr542      Zr  0.85353532  0.03773398  0.65379164     2.06300
Zr543      Zr  0.90660813  0.03229084  0.60085657     2.10000
Zr544      Zr  0.86036721  0.98125384  0.60827112     1.78800
O545        O  0.93347755  0.06567759  0.59073962    -0.93300
O546        O  0.82977964  0.95879009  0.61604573    -0.41100
O547        O  0.87401537  0.03257578  0.59498527    -0.77700
O548        O  0.84818336  0.03408761  0.62071552    -0.96400
O549        O  0.86750380  0.08934906  0.64120243    -0.89700
O550        O  0.89535923  0.08627855  0.61319246    -0.92500
C551        C  0.87772664  0.90659817  0.62825905     1.01200
C552        C  0.94040037  0.98620115  0.62489620     1.14100
C553        C  0.87176441  0.98484726  0.68826840     1.04900
O554        O  0.82481257  0.00828416  0.66198806    -0.94700
O555        O  0.82592909  0.07109360  0.64609157    -0.90400
O556        O  0.83005125  0.09453574  0.61716704    -0.83600
C557        C  0.82007527  0.08743467  0.63154663     1.11600
O558        O  0.92356738  0.08205656  0.67053033    -0.96700
Zr559      Zr  0.90020316  0.08822368  0.64603724     1.88900
O560        O  0.87021062  0.14686194  0.61577672    -0.73300
O561        O  0.85136569  0.08005967  0.67902228    -0.52600
O562        O  0.89262183  0.11909293  0.67472764    -0.97300
O563        O  0.93037610  0.10940807  0.63580252    -0.54500
O564        O  0.89324049  0.14766208  0.63746489    -0.73800
C565        C  0.88177929  0.16282463  0.62644021     0.98500
O566        O  0.84425617  0.11554642  0.58422314    -0.62700
O567        O  0.91176711  0.98859769  0.57671127    -0.57500
O568        O  0.87227189  0.09114898  0.57573331    -0.94100
O569        O  0.90025326  0.06464456  0.57249217    -0.92600
O570        O  0.87023111  0.95007913  0.58045304    -0.92900
O571        O  0.83881537  0.98730629  0.58220711    -0.91700
C572        C  0.88659533  0.08256342  0.56618721     1.17400
H573        H  0.89858249  0.95995776  0.60833442     0.33300
H574        H  0.83514363  0.03273063  0.61786498     0.44100
H575        H  0.90112248  0.10584149  0.60693958     0.37700
H576        H  0.88882834  0.03913855  0.67293228     0.34200
H577        H  0.82873933  0.93657543  0.60907252     0.25900
H578        H  0.83925534  0.07522576  0.68492527     0.31900
H579        H  0.88061112  0.13066514  0.67214155     0.37800
H580        H  0.87523967  0.96842521  0.57211244     0.32200
H581        H  0.90761477  0.99965194  0.56489820     0.31100
H582        H  0.93809889  0.05309700  0.57962737     0.32800
H583        H  0.92771972  0.12992449  0.62777452     0.31800
H584        H  0.83725295  0.01284727  0.58061582     0.35800
H585        H  0.83337994  0.10040027  0.58187629     0.28500
H586        H  0.91245553  0.93246678  0.67185502     0.32700
H587        H  0.92863554  0.10580286  0.67251574     0.35600
H588        H  0.92539725  0.98701990  0.57551324     0.28200
H589        H  0.83921445  0.13681094  0.59018533     0.41100
H590        H  0.82710463  0.98334813  0.65921282     0.31100
H591        H  0.83079102  0.95150384  0.62928725     0.38700
H592        H  0.93492254  0.09135760  0.62707786     0.30600
H593        H  0.86064136  0.07238797  0.68840029     0.30700
H594        H  0.92115969  0.96849192  0.67776758     0.30900
Zr595      Zr  0.89659794  0.48534787  0.64610866     2.17500
O596        O  0.91883170  0.45449671  0.66600159    -0.51400
O597        O  0.89136620  0.42371536  0.63831579    -0.74600
O598        O  0.88622703  0.47803127  0.67832436    -0.81400
O599        O  0.93272686  0.50460368  0.60884125    -0.83200
O600        O  0.85657014  0.49732756  0.68097635    -0.78800
O601        O  0.92973847  0.48566437  0.63879856    -0.90400
O602        O  0.86886318  0.42081538  0.61617624    -0.76400
O603        O  0.86396687  0.48135623  0.64106684    -0.85900
O604        O  0.89220227  0.48216558  0.61313824    -0.85600
O605        O  0.88372469  0.53770216  0.65962582    -0.72300
O606        O  0.90939524  0.53847565  0.63369296    -0.84500
Zr607      Zr  0.85802715  0.58347764  0.60824819     2.26400
Zr608      Zr  0.85105863  0.53398080  0.65379389     2.06300
Zr609      Zr  0.90428946  0.53548228  0.60077166     2.10000
Zr610      Zr  0.85967286  0.47905433  0.60809278     1.78800
O611        O  0.93110973  0.57250279  0.59499809    -0.93300
O612        O  0.83084279  0.45069933  0.61716600    -0.41100
O613        O  0.87163622  0.53180585  0.59496195    -0.77700
O614        O  0.84556523  0.52983771  0.62078227    -0.96400
O615        O  0.86283509  0.58742788  0.64110606    -0.89700
O616        O  0.89072956  0.58753980  0.61315172    -0.92500
C617        C  0.88070364  0.40674217  0.62715525     1.01200
C618        C  0.93928292  0.49110693  0.62394234     1.14100
C619        C  0.87116833  0.48246795  0.68747814     1.04900
O620        O  0.82326054  0.50259307  0.66306519    -0.94700
O621        O  0.82232674  0.56403680  0.64662588    -0.90400
O622        O  0.82519863  0.58733948  0.61751794    -0.83600
C623        C  0.81570929  0.57948225  0.63214318     1.11600
O624        O  0.91830871  0.58831451  0.67113301    -0.96700
Zr625      Zr  0.89543608  0.59019141  0.64600712     1.88900
O626        O  0.86411824  0.64520445  0.61527762    -0.73300
O627        O  0.84866383  0.57596927  0.67919966    -0.52600
O628        O  0.88326003  0.61598590  0.67449578    -0.97300
O629        O  0.92443890  0.61864398  0.63750309    -0.54500
O630        O  0.88714689  0.64864345  0.63690624    -0.73800
C631        C  0.87536356  0.66245697  0.62575111     0.98500
O632        O  0.83831232  0.61112846  0.58465975    -0.62700
O633        O  0.91034822  0.49999912  0.57325324    -0.57500
O634        O  0.86736593  0.58820107  0.57553170    -0.94100
O635        O  0.89686476  0.56795928  0.57274533    -0.92600
O636        O  0.86956308  0.45109658  0.57931528    -0.92900
O637        O  0.83639068  0.48166074  0.58338174    -0.91700
C638        C  0.88226793  0.58269829  0.56620724     1.17400
H639        H  0.89858455  0.46232120  0.60790572     0.33300
H640        H  0.83257706  0.52672300  0.61813073     0.44100
H641        H  0.89570938  0.60788049  0.60693392     0.37700
H642        H  0.88625905  0.53965039  0.67281850     0.34200
H643        H  0.83044025  0.42890538  0.60976219     0.25900
H644        H  0.83529057  0.57694346  0.68215065     0.31900
H645        H  0.88683054  0.64092872  0.67392208     0.37800
H646        H  0.87227109  0.47064809  0.57066110     0.32200
H647        H  0.92300644  0.50669773  0.56936509     0.31100
H648        H  0.92599083  0.59587321  0.59203537     0.32800
H649        H  0.92147612  0.63316246  0.62641545     0.31800
H650        H  0.82881449  0.50250409  0.58626412     0.35800
H651        H  0.82823075  0.59427689  0.58204364     0.28500
H652        H  0.91207006  0.43437863  0.67140815     0.32700
H653        H  0.92050971  0.61299163  0.67460554     0.35600
H654        H  0.91165142  0.47576246  0.57792712     0.28200
H655        H  0.83224448  0.63104518  0.59096653     0.41100
H656        H  0.81930802  0.49001816  0.65166658     0.31100
H657        H  0.83299093  0.44270262  0.63016046     0.38700
H658        H  0.93228548  0.59958936  0.63258210     0.30600
H659        H  0.85437728  0.56432007  0.69016334     0.30700
H660        H  0.92138533  0.47019551  0.67667482     0.30900
Zr661      Zr  0.89862064  0.44105954  0.85726735     2.17500
O662        O  0.92176379  0.46708387  0.83672165    -0.51400
O663        O  0.89160830  0.50261467  0.86305416    -0.74600
O664        O  0.88785451  0.44767908  0.82506483    -0.81400
O665        O  0.93503628  0.42780054  0.89539074    -0.83200
O666        O  0.85971022  0.42176042  0.82181343    -0.78800
O667        O  0.93134728  0.44610493  0.86536050    -0.90400
O668        O  0.86900392  0.50533826  0.88495173    -0.76400
O669        O  0.86600546  0.44305913  0.86216717    -0.85900
O670        O  0.89427253  0.44620567  0.89017004    -0.85600
O671        O  0.88704429  0.38691408  0.84467187    -0.72300
O672        O  0.91278074  0.39004716  0.87074226    -0.84500
Zr673      Zr  0.86262033  0.34237505  0.89634711     2.26400
Zr674      Zr  0.85431813  0.38892769  0.85020930     2.06300
Zr675      Zr  0.90757878  0.39468268  0.90348879     2.10000
Zr676      Zr  0.86175464  0.44694006  0.89509124     1.78800
O677        O  0.93487078  0.35902516  0.90975195    -0.93300
O678        O  0.83200393  0.47273498  0.88664345    -0.41100
O679        O  0.87492518  0.39582619  0.90906707    -0.77700
O680        O  0.84879315  0.39436360  0.88308738    -0.96400
O681        O  0.86757465  0.33709223  0.86358532    -0.89700
O682        O  0.89536373  0.34084568  0.89189089    -0.92500
C683        C  0.88025383  0.51947820  0.87345285     1.01200
C684        C  0.94104953  0.44169160  0.88025115     1.14100
C685        C  0.87342966  0.43935817  0.81551081     1.04900
O686        O  0.82672680  0.42310162  0.84295129    -0.94700
O687        O  0.82677052  0.35539487  0.85734557    -0.90400
O688        O  0.82974743  0.33657584  0.88736032    -0.83600
C689        C  0.82024119  0.34191210  0.87235539     1.11600
O690        O  0.92567431  0.34108188  0.83696362    -0.96700
Zr691      Zr  0.90032313  0.33643796  0.85921788     1.88900
O692        O  0.87049105  0.28093273  0.89054835    -0.73300
O693        O  0.85034077  0.35029412  0.82353364    -0.52600
O694        O  0.89188279  0.30859479  0.82984494    -0.97300
O695        O  0.92866943  0.30803258  0.87015845    -0.54500
O696        O  0.89233705  0.27772655  0.86791532    -0.73800
C697        C  0.88141789  0.26380043  0.87978319     0.98500
O698        O  0.84425458  0.31035273  0.91926997    -0.62700
O699        O  0.91346172  0.43415343  0.92947142    -0.57500
O700        O  0.87163824  0.34159267  0.92928154    -0.94100
O701        O  0.90103161  0.36249607  0.93168031    -0.92600
O702        O  0.87079728  0.47588034  0.92396612    -0.92900
O703        O  0.83883430  0.44240420  0.91984702    -0.91700
C704        C  0.88661315  0.34776766  0.93845804     1.17400
H705        H  0.90018983  0.46684243  0.89510402     0.33300
H706        H  0.83575847  0.39679970  0.88565693     0.44100
H707        H  0.90077056  0.32139570  0.89859756     0.37700
H708        H  0.88962251  0.38473472  0.83151915     0.34200
H709        H  0.83173878  0.49545035  0.89321775     0.25900
H710        H  0.84783698  0.32700592  0.82901898     0.31900
H711        H  0.87995363  0.29679916  0.83238804     0.37800
H712        H  0.86500120  0.49929821  0.92320809     0.32200
H713        H  0.90235637  0.43227463  0.93747673     0.31100
H714        H  0.93728861  0.36168736  0.92329427     0.32800
H715        H  0.92528062  0.29505586  0.88162647     0.31800
H716        H  0.83685298  0.41697849  0.92147022     0.35800
H717        H  0.83399677  0.32617427  0.92278552     0.28500
H718        H  0.91608741  0.48882377  0.83180856     0.32700
H719        H  0.92865015  0.31676541  0.83336252     0.35600
H720        H  0.92345731  0.42274123  0.93678351     0.28200
H721        H  0.83828446  0.29099209  0.91235696     0.41100
H722        H  0.82017729  0.42547628  0.85500225     0.31100
H723        H  0.83322496  0.47903368  0.87328318     0.38700
H724        H  0.93661320  0.32736990  0.87463084     0.30600
H725        H  0.83839278  0.35749797  0.81787080     0.30700
H726        H  0.92277311  0.45136747  0.82581120     0.30900
Zr727      Zr  0.89965351  0.94106311  0.85907698     2.17500
O728        O  0.92306958  0.96757044  0.83902412    -0.51400
O729        O  0.89309943  0.00260512  0.86641359    -0.74600
O730        O  0.88928946  0.94830866  0.82655918    -0.81400
O731        O  0.93649254  0.92088369  0.89634580    -0.83200
O732        O  0.86024247  0.92604524  0.82351125    -0.78800
O733        O  0.93250884  0.94426618  0.86737002    -0.90400
O734        O  0.87202675  0.00530363  0.88984144    -0.76400
O735        O  0.86719653  0.94510844  0.86453448    -0.85900
O736        O  0.89574798  0.94381578  0.89212352    -0.85600
O737        O  0.88681148  0.88834598  0.84591820    -0.72300
O738        O  0.91294323  0.88817804  0.87152570    -0.84500
Zr739      Zr  0.86216002  0.84123486  0.89687431     2.26400
Zr740      Zr  0.85419885  0.89262881  0.85185015     2.06300
Zr741      Zr  0.90814231  0.89051522  0.90438957     2.10000
Zr742      Zr  0.86333743  0.94634650  0.89759416     1.78800
O743        O  0.93350766  0.84988270  0.91008986    -0.93300
O744        O  0.83402623  0.97363785  0.88890175    -0.41100
O745        O  0.87554205  0.89322753  0.91016764    -0.77700
O746        O  0.84927367  0.89510332  0.88499566    -0.96400
O747        O  0.86671910  0.83901398  0.86394777    -0.89700
O748        O  0.89491703  0.83788152  0.89211713    -0.92500
C749        C  0.88293581  0.01953383  0.87804276     1.01200
C750        C  0.94245104  0.93685422  0.88178229     1.14100
C751        C  0.87452370  0.94186154  0.81704024     1.04900
O752        O  0.82763782  0.93107985  0.84754641    -0.94700
O753        O  0.82577636  0.86133693  0.85859444    -0.90400
O754        O  0.82937869  0.83558793  0.88708299    -0.83600
C755        C  0.81956159  0.84422849  0.87267844     1.11600
O756        O  0.92443429  0.84117937  0.83677933    -0.96700
Zr757      Zr  0.89935568  0.83611603  0.85927098     1.88900
O758        O  0.86722731  0.77985124  0.88835452    -0.73300
O759        O  0.84786421  0.85512299  0.82515884    -0.52600
O760        O  0.89117365  0.81066777  0.82923199    -0.97300
O761        O  0.92717378  0.80476320  0.86918035    -0.54500
O762        O  0.88918886  0.77756092  0.86580418    -0.73800
C763        C  0.87754657  0.76319579  0.87678725     0.98500
O764        O  0.84281158  0.81449500  0.92086157    -0.62700
O765        O  0.91693906  0.92655358  0.93102627    -0.57500
O766        O  0.87235884  0.83465968  0.92954620    -0.94100
O767        O  0.90025716  0.86154652  0.93310823    -0.92600
O768        O  0.87400553  0.97029534  0.92721552    -0.92900
O769        O  0.84049123  0.94523919  0.92251386    -0.91700
C770        C  0.88661565  0.84362033  0.93929832     1.17400
H771        H  0.90210657  0.96374759  0.89734939     0.33300
H772        H  0.83629084  0.89745645  0.88786351     0.44100
H773        H  0.90006718  0.81755329  0.89826642     0.37700
H774        H  0.88919635  0.88639323  0.83272093     0.34200
H775        H  0.83390601  0.99615434  0.89566902     0.25900
H776        H  0.83849275  0.86796632  0.81768716     0.31900
H777        H  0.89778557  0.78799987  0.82894990     0.37800
H778        H  0.87824728  0.94976636  0.93452572     0.32200
H779        H  0.92952852  0.91849829  0.93451010     0.31100
H780        H  0.93808929  0.85574075  0.92275035     0.32800
H781        H  0.92302118  0.78736702  0.87852778     0.31800
H782        H  0.84024614  0.92057523  0.92672235     0.35800
H783        H  0.83221795  0.83057617  0.92262466     0.28500
H784        H  0.91725852  0.98881924  0.83367469     0.32700
H785        H  0.93347307  0.85722187  0.84267453     0.35600
H786        H  0.91882735  0.95034339  0.92591977     0.28200
H787        H  0.83744295  0.79335245  0.91502833     0.41100
H788        H  0.82396118  0.92811682  0.83431064     0.31100
H789        H  0.83552926  0.98032315  0.87562676     0.38700
H790        H  0.93438820  0.82199481  0.87646643     0.30600
H791        H  0.85926568  0.85603302  0.81753478     0.30700
H792        H  0.92461439  0.95145514  0.82834589     0.30900
Zr793      Zr  0.11183668  0.98482338  0.85819361     2.17500
O794        O  0.09008127  0.95346765  0.83811140    -0.51400
O795        O  0.11839405  0.92366938  0.86601989    -0.74600
O796        O  0.12299122  0.97663598  0.82633026    -0.81400
O797        O  0.07465735  0.00411353  0.89438662    -0.83200
O798        O  0.15204295  0.99885930  0.82378902    -0.78800
O799        O  0.07875004  0.98319202  0.86497924    -0.90400
O800        O  0.13982929  0.92104663  0.88925204    -0.76400
O801        O  0.14426208  0.98185286  0.86414118    -0.85900
O802        O  0.11528695  0.98238629  0.89131243    -0.85600
O803        O  0.12419829  0.03752134  0.84450435    -0.72300
O804        O  0.09816741  0.03753788  0.87001629    -0.84500
Zr805      Zr  0.14819939  0.08492778  0.89611973     2.26400
Zr806      Zr  0.15669797  0.03471403  0.85120485     2.06300
Zr807      Zr  0.10254714  0.03557957  0.90312084     2.10000
Zr808      Zr  0.14764854  0.98020156  0.89727079     1.78800
O809        O  0.07516466  0.07119010  0.90873331    -0.93300
O810        O  0.17717071  0.95267167  0.88993767    -0.41100
O811        O  0.13499889  0.03299209  0.90965170    -0.77700
O812        O  0.16133823  0.03135230  0.88436978    -0.96400
O813        O  0.14400476  0.08794460  0.86308495    -0.89700
O814        O  0.11557583  0.08803371  0.89046050    -0.92500
C815        C  0.12891604  0.90680886  0.87743322     1.01200
C816        C  0.06877840  0.98938043  0.87942147     1.14100
C817        C  0.13799290  0.98240791  0.81727583     1.04900
O818        O  0.18474469  0.00226407  0.84394132    -0.94700
O819        O  0.18496116  0.06525502  0.85884124    -0.90400
O820        O  0.18120138  0.08931054  0.88757703    -0.83600
C821        C  0.19111050  0.08104988  0.87332596     1.11600
O822        O  0.08984897  0.08628223  0.83119754    -0.96700
Zr823      Zr  0.11143473  0.08971712  0.85745024     1.88900
O824        O  0.14179411  0.14617451  0.88812545    -0.73300
O825        O  0.16004513  0.07495568  0.82498278    -0.52600
O826        O  0.12210166  0.11922167  0.82926031    -0.97300
O827        O  0.08101070  0.11346434  0.86498569    -0.54500
O828        O  0.11873654  0.14864611  0.86646037    -0.73800
C829        C  0.13047068  0.16295465  0.87744960     0.98500
O830        O  0.16727246  0.11389716  0.91965689    -0.62700
O831        O  0.09719969  0.99768598  0.92998848    -0.57500
O832        O  0.13838420  0.09032605  0.92876785    -0.94100
O833        O  0.10915985  0.06869296  0.93122294    -0.92600
O834        O  0.13718889  0.95244648  0.92599806    -0.92900
O835        O  0.17054276  0.98671011  0.92208588    -0.91700
C836        C  0.12344999  0.08423247  0.93796955     1.17400
H837        H  0.10897259  0.96236216  0.89650071     0.33300
H838        H  0.17426879  0.02862954  0.88743004     0.44100
H839        H  0.11026586  0.10829695  0.89640945     0.37700
H840        H  0.12195682  0.03899978  0.83123679     0.34200
H841        H  0.17636509  0.92887363  0.89533944     0.25900
H842        H  0.16641244  0.09564979  0.83022211     0.31900
H843        H  0.13449044  0.12851802  0.83250056     0.37800
H844        H  0.13509622  0.97198913  0.93476480     0.32200
H845        H  0.08731772  0.00950745  0.93713727     0.31100
H846        H  0.07982857  0.09535071  0.91014804     0.32800
H847        H  0.08276864  0.12624885  0.87685298     0.31800
H848        H  0.17082296  0.01211898  0.92463662     0.35800
H849        H  0.17722028  0.09710171  0.92293288     0.28500
H850        H  0.09689591  0.93288449  0.83336360     0.32700
H851        H  0.08591707  0.11062498  0.82860587     0.35600
H852        H  0.09117878  0.97650818  0.92490220     0.28200
H853        H  0.17358794  0.13335598  0.91313142     0.41100
H854        H  0.18918998  0.01247229  0.83204803     0.31100
H855        H  0.17681248  0.94901796  0.87625788     0.38700
H856        H  0.07342342  0.09289112  0.86840779     0.30600
H857        H  0.16939661  0.06392876  0.81682370     0.30700
H858        H  0.08801207  0.96858822  0.82704258     0.30900
Zr859      Zr  0.11083297  0.48618104  0.85709858     2.17500
O860        O  0.08747546  0.46072866  0.83649791    -0.51400
O861        O  0.11745426  0.42431181  0.86341352    -0.74600
O862        O  0.12185619  0.47965359  0.82493050    -0.81400
O863        O  0.07327194  0.50782982  0.89301203    -0.83200
O864        O  0.15123558  0.50066534  0.82308706    -0.78800
O865        O  0.07795582  0.48199470  0.86484050    -0.90400
O866        O  0.13814141  0.42082202  0.88731429    -0.76400
O867        O  0.14325544  0.48234405  0.86314880    -0.85900
O868        O  0.11425824  0.48219519  0.89022193    -0.85600
O869        O  0.12363871  0.53921095  0.84423802    -0.72300
O870        O  0.09766876  0.53883414  0.86962960    -0.84500
Zr871      Zr  0.14797695  0.58375949  0.89629526     2.26400
Zr872      Zr  0.15613905  0.53538501  0.85087424     2.06300
Zr873      Zr  0.10196267  0.53530526  0.90267678     2.10000
Zr874      Zr  0.14660020  0.47908149  0.89624563     1.78800
O875        O  0.07663962  0.57501671  0.90987208    -0.93300
O876        O  0.17498126  0.44785856  0.88849821    -0.41100
O877        O  0.13441904  0.53165047  0.90921428    -0.77700
O878        O  0.16089531  0.53041566  0.88403542    -0.96400
O879        O  0.14390798  0.58845425  0.86334830    -0.89700
O880        O  0.11541452  0.58785195  0.89070863    -0.92500
C881        C  0.12762725  0.40703496  0.87499983     1.01200
C882        C  0.06766500  0.49078583  0.87866701     1.14100
C883        C  0.13700598  0.48553355  0.81607320     1.04900
O884        O  0.18376058  0.50368183  0.84142733    -0.94700
O885        O  0.18464917  0.56488281  0.85906027    -0.90400
O886        O  0.18063711  0.58991007  0.88751238    -0.83600
C887        C  0.19061123  0.58143296  0.87339808     1.11600
O888        O  0.08725118  0.58944410  0.83387306    -0.96700
Zr889      Zr  0.11137502  0.59118620  0.85778550     1.88900
O890        O  0.14217860  0.64555676  0.88919971    -0.73300
O891        O  0.15857844  0.57768096  0.82545245    -0.52600
O892        O  0.12237336  0.61727689  0.82877815    -0.97300
O893        O  0.08280404  0.62032544  0.86703359    -0.54500
O894        O  0.12064868  0.64934635  0.86606035    -0.73800
C895        C  0.13185386  0.66294744  0.87780339     0.98500
O896        O  0.16773528  0.60776870  0.92088642    -0.62700
O897        O  0.09347728  0.49409717  0.92718561    -0.57500
O898        O  0.13783059  0.58996181  0.92857422    -0.94100
O899        O  0.10938159  0.56507418  0.93161633    -0.92600
O900        O  0.13554850  0.45541186  0.92580075    -0.92900
O901        O  0.16970383  0.47975835  0.92112522    -0.91700
C902        C  0.12331282  0.58212376  0.93802219     1.17400
H903        H  0.10773729  0.46219337  0.89515632     0.33300
H904        H  0.17384367  0.52779167  0.88709894     0.44100
H905        H  0.11022558  0.60799062  0.89688763     0.37700
H906        H  0.12140983  0.54144765  0.83099203     0.34200
H907        H  0.17304316  0.43952448  0.87555947     0.25900
H908        H  0.16961920  0.59194050  0.82846425     0.31900
H909        H  0.11787985  0.64171524  0.82900100     0.37800
H910        H  0.12642332  0.43722427  0.92235575     0.32200
H911        H  0.10371808  0.49530279  0.93639572     0.31100
H912        H  0.07188978  0.56691154  0.92209322     0.32800
H913        H  0.08652839  0.63825267  0.87624653     0.31800
H914        H  0.17292320  0.50473644  0.92262080     0.35800
H915        H  0.17802109  0.59092525  0.92265291     0.28500
H916        H  0.09334481  0.43987937  0.83089889     0.32700
H917        H  0.08548096  0.61396645  0.82978453     0.35600
H918        H  0.08282283  0.50510056  0.93354165     0.28200
H919        H  0.17351512  0.62899624  0.91553122     0.41100
H920        H  0.18578402  0.48627703  0.85148680     0.31100
H921        H  0.18461956  0.46611250  0.88734562     0.38700
H922        H  0.07604954  0.60263243  0.87446360     0.30600
H923        H  0.16228622  0.56392514  0.81439739     0.30700
H924        H  0.08594416  0.47751035  0.82604355     0.30900
Zr925      Zr  0.10953752  0.44399688  0.64626081     2.17500
O926        O  0.08630455  0.46948674  0.66679385    -0.51400
O927        O  0.11557178  0.50556621  0.63966616    -0.74600
O928        O  0.12112003  0.45283778  0.67813520    -0.81400
O929        O  0.07217359  0.42297999  0.60968025    -0.83200
O930        O  0.14950448  0.42784323  0.68177608    -0.78800
O931        O  0.07638692  0.44551551  0.63876106    -0.90400
O932        O  0.13727257  0.50915312  0.61687512    -0.76400
O933        O  0.14199553  0.44788292  0.64078091    -0.85900
O934        O  0.11334251  0.44816487  0.61318254    -0.85600
O935        O  0.12245292  0.39149920  0.65960265    -0.72300
O936        O  0.09639313  0.39172751  0.63348416    -0.84500
Zr937      Zr  0.14710720  0.34563670  0.60826822     2.26400
Zr938      Zr  0.15508058  0.39530758  0.65342721     2.06300
Zr939      Zr  0.10112761  0.39519751  0.60054987     2.10000
Zr940      Zr  0.14580097  0.45080123  0.60779369     1.78800
O941        O  0.07534622  0.35733587  0.59215266    -0.93300
O942        O  0.17479325  0.47964102  0.61606882    -0.41100
O943        O  0.13372112  0.39792309  0.59495006    -0.77700
O944        O  0.16002786  0.39930603  0.62031897    -0.96400
O945        O  0.14254795  0.34212262  0.64114401    -0.89700
O946        O  0.11435239  0.34255237  0.61305031    -0.92500
C947        C  0.12615240  0.52285028  0.62862080     1.01200
C948        C  0.06620848  0.43793199  0.62453680     1.14100
C949        C  0.13572705  0.44561796  0.68776273     1.04900
O950        O  0.18060156  0.43491202  0.66017886    -0.94700
O951        O  0.18364464  0.36495200  0.64640590    -0.90400
O952        O  0.17995808  0.34047910  0.61775636    -0.83600
C953        C  0.18982405  0.34859962  0.63213625     1.11600
O954        O  0.08613506  0.34242160  0.66997080    -0.96700
Zr955      Zr  0.10991355  0.33980980  0.64593985     1.88900
O956        O  0.14027108  0.28368650  0.61520568    -0.73300
O957        O  0.16156569  0.35585500  0.67944403    -0.52600
O958        O  0.12019028  0.31087096  0.67453418    -0.97300
O959        O  0.08078516  0.31275004  0.63638011    -0.54500
O960        O  0.11824591  0.28150138  0.63769387    -0.73800
C961        C  0.12930688  0.26699074  0.62624322     0.98500
O962        O  0.16695869  0.31828699  0.58494829    -0.62700
O963        O  0.09463446  0.43610786  0.57517986    -0.57500
O964        O  0.13792772  0.34122110  0.57545928    -0.94100
O965        O  0.10915477  0.36480236  0.57208551    -0.92600
O966        O  0.13605306  0.47821857  0.57859444    -0.92900
O967        O  0.16759173  0.44850827  0.58195262    -0.91700
C968        C  0.12336024  0.34849608  0.56582633     1.17400
H969        H  0.10688155  0.46818886  0.60812618     0.33300
H970        H  0.17299173  0.40183234  0.61743695     0.44100
H971        H  0.10910714  0.32245253  0.60684611     0.37700
H972        H  0.12004816  0.38980982  0.67280781     0.34200
H973        H  0.17410928  0.48309672  0.62974285     0.25900
H974        H  0.16262847  0.33239817  0.67375369     0.31900
H975        H  0.12282397  0.32994084  0.68345896     0.37800
H976        H  0.12484317  0.49186679  0.58170521     0.32200
H977        H  0.10614729  0.43665202  0.56772444     0.31100
H978        H  0.06952570  0.36881033  0.58118703     0.32800
H979        H  0.08414693  0.29501067  0.62695252     0.31800
H980        H  0.16706687  0.42400492  0.57759160     0.35800
H981        H  0.17723564  0.33487449  0.58265730     0.28500
H982        H  0.09203975  0.49080303  0.67206144     0.32700
H983        H  0.08346540  0.31780028  0.67330092     0.35600
H984        H  0.08556521  0.42388672  0.56710944     0.28200
H985        H  0.17274453  0.29789342  0.59121661     0.41100
H986        H  0.18869194  0.43377642  0.64907131     0.31100
H987        H  0.18456964  0.46179038  0.61441765     0.38700
H988        H  0.07421627  0.33110815  0.62917559     0.30600
H989        H  0.17434122  0.36170100  0.68343157     0.30700
H990        H  0.08518412  0.45311572  0.67747294     0.30900
Zr991      Zr  0.11027240  0.94441501  0.64735667     2.17500
O992        O  0.08889369  0.97789888  0.66665798    -0.51400
O993        O  0.11620527  0.00604356  0.63944097    -0.74600
O994        O  0.12073975  0.94949140  0.67983686    -0.81400
O995        O  0.07337859  0.92432889  0.61060534    -0.83200
O996        O  0.15018328  0.92887507  0.68250973    -0.78800
O997        O  0.07700009  0.94205966  0.64069382    -0.90400
O998        O  0.13842400  0.00787142  0.61714697    -0.76400
O999        O  0.14294841  0.94625263  0.64301547    -0.85900
O1000       O  0.11518556  0.94860772  0.61443890    -0.85600
O1001       O  0.12195500  0.89067567  0.66077468    -0.72300
O1002       O  0.09663357  0.89294283  0.63398045    -0.84500
Zr1003     Zr  0.14657700  0.84441972  0.60978582     2.26400
Zr1004     Zr  0.15468671  0.89237550  0.65541741     2.06300
Zr1005     Zr  0.10221973  0.89683854  0.60122613     2.10000
Zr1006     Zr  0.14785432  0.94924237  0.61019858     1.78800
O1007       O  0.07584481  0.86332477  0.58985019    -0.93300
O1008       O  0.17554262  0.97801757  0.62226714    -0.41100
O1009       O  0.13494949  0.89786777  0.59632770    -0.77700
O1010       O  0.16041405  0.89643722  0.62256356    -0.96400
O1011       O  0.14143062  0.84039531  0.64255237    -0.89700
O1012       O  0.11380828  0.84309537  0.61390185    -0.92500
C1013       C  0.12697127  0.02256106  0.62818430     1.01200
C1014       C  0.06710749  0.93657350  0.62600564     1.14100
C1015       C  0.13574365  0.94377154  0.68910223     1.04900
O1016       O  0.18400822  0.92302075  0.65936822    -0.94700
O1017       O  0.18143900  0.85590710  0.64999100    -0.90400
O1018       O  0.17867263  0.83638333  0.62018139    -0.83600
C1019       C  0.18795948  0.84171026  0.63524089     1.11600
O1020       O  0.08312166  0.84808013  0.66839404    -0.96700
Zr1021     Zr  0.10868669  0.83994219  0.64668915     1.88900
O1022       O  0.13831702  0.78335634  0.61619318    -0.73300
O1023       O  0.15721298  0.85686343  0.68359246    -0.52600
O1024       O  0.11617977  0.81089993  0.67614191    -0.97300
O1025       O  0.08031611  0.81162256  0.63598998    -0.54500
O1026       O  0.11721178  0.78091755  0.63959299    -0.73800
C1027       C  0.12781458  0.76662096  0.62761754     0.98500
O1028       O  0.16661507  0.81682410  0.58670673    -0.62700
O1029       O  0.09711695  0.94084193  0.57711181    -0.57500
O1030       O  0.13846785  0.84073167  0.57678540    -0.94100
O1031       O  0.11001575  0.86532787  0.57299967    -0.92600
O1032       O  0.14087075  0.97408282  0.57960359    -0.92900
O1033       O  0.17404761  0.94684314  0.58889995    -0.91700
C1034       C  0.12409791  0.84839175  0.56696563     1.17400
H1035       H  0.10923654  0.96894824  0.60912103     0.33300
H1036       H  0.17352208  0.89796253  0.62013322     0.44100
H1037       H  0.10845400  0.82337533  0.60746129     0.37700
H1038       H  0.11934472  0.88858486  0.67392441     0.34200
H1039       H  0.17648759  0.00004285  0.61503733     0.25900
H1040       H  0.15552713  0.83253546  0.67925647     0.31900
H1041       H  0.11608105  0.82951981  0.68569945     0.37800
H1042       H  0.14827836  0.99581739  0.57895456     0.32200
H1043       H  0.10848059  0.94023896  0.56943878     0.31100
H1044       H  0.07838574  0.83890881  0.59366793     0.32800
H1045       H  0.08409151  0.79566726  0.62584125     0.31800
H1046       H  0.17320554  0.92344043  0.58311053     0.35800
H1047       H  0.17746335  0.83240712  0.58520676     0.28500
H1048       H  0.09626207  0.99732964  0.67195999     0.32700
H1049       H  0.07968362  0.82430737  0.67263039     0.35600
H1050       H  0.08739975  0.93070307  0.56897743     0.28200
H1051       H  0.17150493  0.79536701  0.59272473     0.41100
H1052       H  0.18940854  0.91333661  0.67102277     0.31100
H1053       H  0.17226423  0.98560851  0.63504039     0.38700
H1054       H  0.07326114  0.83037624  0.62959075     0.30600
H1055       H  0.17043436  0.85826923  0.68723409     0.30700
H1056       H  0.08591219  0.96270344  0.67745873     0.30900
Zr1057     Zr  0.36199320  0.09064914  0.10816477     2.17500
O1058       O  0.34043721  0.05747342  0.08873186    -0.51400
O1059       O  0.36889620  0.02936155  0.11579739    -0.74600
O1060       O  0.37261139  0.08428856  0.07562029    -0.81400
O1061       O  0.32462000  0.11159632  0.14441998    -0.83200
O1062       O  0.40144349  0.10775568  0.07355954    -0.78800
O1063       O  0.32858414  0.09032687  0.11505749    -0.90400
O1064       O  0.39003918  0.02650864  0.13930807    -0.76400
O1065       O  0.39452590  0.08788473  0.11419076    -0.85900
O1066       O  0.36569198  0.08733812  0.14131647    -0.85600
O1067       O  0.37447733  0.14403626  0.09518942    -0.72300
O1068       O  0.34843513  0.14295903  0.12077158    -0.84500
Zr1069     Zr  0.39857259  0.18978054  0.14673747     2.26400
Zr1070     Zr  0.40711719  0.14100152  0.10165024     2.06300
Zr1071     Zr  0.35305777  0.13996336  0.15387174     2.26000
Zr1072     Zr  0.39806315  0.08539278  0.14734189     1.78800
O1073       O  0.32621079  0.17599418  0.16102926    -0.93300
O1074       O  0.42691820  0.05520650  0.14037727    -0.41100
O1075       O  0.38555716  0.13770121  0.16026280    -0.77700
O1076       O  0.41183410  0.13676454  0.13464026    -0.96400
O1077       O  0.39417857  0.19372213  0.11381120    -0.89700
O1078       O  0.36590357  0.19294780  0.14161059    -0.92500
C1079       C  0.37927767  0.01239828  0.12732375     1.01200
C1080       C  0.31854176  0.09744823  0.12940365     1.14100
C1081       C  0.38754240  0.09145954  0.06660029     1.04900
O1082       O  0.43473955  0.10625682  0.09587116    -0.94700
O1083       O  0.43508243  0.17360540  0.10904103    -0.90400
O1084       O  0.43113314  0.19655328  0.13800440    -0.83600
C1085       C  0.44102498  0.18970268  0.12357078     1.11600
O1086       O  0.33953368  0.19312451  0.08284802    -0.96700
Zr1087     Zr  0.36155150  0.19563861  0.10867970     1.88900
O1088       O  0.39145988  0.25126287  0.14017588    -0.73300
O1089       O  0.41308054  0.18015114  0.07547199    -0.52600
O1090       O  0.37103517  0.22523632  0.08012230    -0.97300
O1091       O  0.33152132  0.22003289  0.11712728    -0.54500
O1092       O  0.36895062  0.25445933  0.11798196    -0.73800
C1093       C  0.38039510  0.26841336  0.12940501     0.98500
O1094       O  0.42209821  0.21669861  0.16659060    -0.62700
O1095       O  0.34732961  0.09722937  0.17859685    -0.57500
O1096       O  0.38920459  0.19316484  0.17947396    -0.94100
O1097       O  0.36006353  0.17139768  0.18247327    -0.92600
O1098       O  0.38732731  0.05846203  0.17620451    -0.92900
O1099       O  0.42099608  0.09278172  0.17206929    -0.91700
C1100       C  0.37456738  0.18651877  0.18898598     1.17400
H1101       H  0.35939973  0.06719468  0.14640774     0.33300
H1102       H  0.42483911  0.13457737  0.13756420     0.44100
H1103       H  0.36060528  0.21289566  0.14786749     0.37700
H1104       H  0.37212286  0.14622131  0.08197932     0.34200
H1105       H  0.42724339  0.03513273  0.14913989     0.25900
H1106       H  0.42268843  0.16810417  0.06804994     0.31900
H1107       H  0.38263083  0.23756384  0.08346029     0.37800
H1108       H  0.38472245  0.07829480  0.18463924     0.32200
H1109       H  0.34870828  0.11004734  0.19049919     0.31100
H1110       H  0.32351535  0.17115662  0.17433572     0.32800
H1111       H  0.33082074  0.24257530  0.11033077     0.31800
H1112       H  0.42102403  0.11819253  0.17463608     0.35800
H1113       H  0.41598851  0.23696015  0.17252741     0.28500
H1114       H  0.34753402  0.03712855  0.08411493     0.32700
H1115       H  0.33117581  0.17351062  0.08603657     0.35600
H1116       H  0.33394838  0.09180265  0.17781493     0.28200
H1117       H  0.42444631  0.19989123  0.17688233     0.41100
H1118       H  0.43040666  0.08173037  0.09610590     0.31100
H1119       H  0.42487975  0.04453300  0.12795909     0.38700
H1120       H  0.33270861  0.22673390  0.13041648     0.30600
H1121       H  0.40176443  0.17898934  0.06764196     0.30700
H1122       H  0.33802468  0.07204630  0.07752693     0.30900
Zr1123     Zr  0.36230025  0.59078087  0.10993020     2.17500
O1124       O  0.33987812  0.55852991  0.09105336    -0.51400
O1125       O  0.36885025  0.52962565  0.11772001    -0.74600
O1126       O  0.37235387  0.58230963  0.07768114    -0.81400
O1127       O  0.32564370  0.61427860  0.14619435    -0.83200
O1128       O  0.40130622  0.60483493  0.07443079    -0.78800
O1129       O  0.32899703  0.59154516  0.11710770    -0.90400
O1130       O  0.39241784  0.52655778  0.13873368    -0.76400
O1131       O  0.39509186  0.58851712  0.11425997    -0.85900
O1132       O  0.36747248  0.58701388  0.14280997    -0.85600
O1133       O  0.37428098  0.64383077  0.09611012    -0.72300
O1134       O  0.34915146  0.64302641  0.12276922    -0.84500
Zr1135     Zr  0.39980659  0.69002253  0.14683276     2.26400
Zr1136     Zr  0.40718148  0.64167905  0.10125506     2.06300
Zr1137     Zr  0.35497768  0.63951121  0.15556557     2.10000
Zr1138     Zr  0.40018885  0.58554777  0.14709212     1.78800
O1139       O  0.32922115  0.67505501  0.16644538    -0.93300
O1140       O  0.42919999  0.55776028  0.13823146    -0.41100
O1141       O  0.38774129  0.63740145  0.16064455    -0.77700
O1142       O  0.41316764  0.63764464  0.13409499    -0.96400
O1143       O  0.39443624  0.69392756  0.11408726    -0.89700
O1144       O  0.36702862  0.69266717  0.14278902    -0.92500
C1145       C  0.38035453  0.51255530  0.12802163     1.01200
C1146       C  0.31916461  0.59988589  0.13138712     1.14100
C1147       C  0.38712907  0.58825797  0.06826118     1.04900
O1148       O  0.43503751  0.60927168  0.09318809    -0.94700
O1149       O  0.43509822  0.67584275  0.10752551    -0.90400
O1150       O  0.43117957  0.70149288  0.13583675    -0.83600
C1151       C  0.44085823  0.69438045  0.12131390     1.11600
O1152       O  0.33854793  0.69114225  0.08521483    -0.96700
Zr1153     Zr  0.36171942  0.69552252  0.10998349     1.88900
O1154       O  0.39117090  0.75144026  0.14200662    -0.73300
O1155       O  0.40903545  0.68190180  0.07485258    -0.52600
O1156       O  0.37147354  0.72644617  0.08188834    -0.97300
O1157       O  0.33221118  0.72066546  0.11958632    -0.54500
O1158       O  0.36913183  0.75426327  0.11929678    -0.73800
C1159       C  0.38011769  0.76839004  0.13111471     0.98500
O1160       O  0.42424875  0.71525779  0.16622136    -0.62700
O1161       O  0.34955717  0.59628449  0.18000851    -0.57500
O1162       O  0.39219033  0.69123097  0.17994665    -0.94100
O1163       O  0.36289265  0.67078993  0.18371137    -0.92600
O1164       O  0.39045852  0.55546851  0.17542443    -0.92900
O1165       O  0.42392016  0.59184746  0.17113726    -0.91700
C1166       C  0.37774952  0.68506052  0.18980330     1.17400
H1167       H  0.36148626  0.56677645  0.14816133     0.33300
H1168       H  0.42631702  0.63655183  0.13652544     0.44100
H1169       H  0.36178821  0.71240440  0.14927492     0.37700
H1170       H  0.37147170  0.64529473  0.08296073     0.34200
H1171       H  0.43001490  0.53659679  0.14619114     0.25900
H1172       H  0.42207671  0.68060302  0.07070096     0.31900
H1173       H  0.37257890  0.70822915  0.07217596     0.37800
H1174       H  0.38953403  0.57401590  0.18497233     0.32200
H1175       H  0.35879813  0.60166116  0.18983582     0.31100
H1176       H  0.32464324  0.66289596  0.17775007     0.32800
H1177       H  0.33440406  0.73008446  0.13226147     0.31800
H1178       H  0.42024843  0.61294057  0.17818785     0.35800
H1179       H  0.41842851  0.73474593  0.17311363     0.28500
H1180       H  0.34647470  0.53745886  0.08661525     0.32700
H1181       H  0.33428960  0.71537236  0.08288042     0.35600
H1182       H  0.33754096  0.60300984  0.18555318     0.28200
H1183       H  0.42722881  0.69741071  0.17582730     0.41100
H1184       H  0.44013864  0.62169492  0.08219953     0.31100
H1185       H  0.42693826  0.54868773  0.12548880     0.38700
H1186       H  0.32398495  0.70031946  0.12159940     0.30600
H1187       H  0.40187945  0.67072486  0.06467625     0.30700
H1188       H  0.33766708  0.57281988  0.07970216     0.30900
Zr1189     Zr  0.36220576  0.34435753  0.39439450     2.17500
O1190       O  0.33915971  0.37429123  0.41343877    -0.51400
O1191       O  0.36834707  0.40530479  0.38526190    -0.74600
O1192       O  0.37209085  0.35404296  0.42690206    -0.81400
O1193       O  0.32564599  0.31910690  0.35784338    -0.83200
O1194       O  0.40052424  0.32968147  0.43111326    -0.78800
O1195       O  0.32920145  0.34483703  0.38623675    -0.90400
O1196       O  0.38989987  0.40647437  0.36227660    -0.76400
O1197       O  0.39484739  0.34733498  0.38961635    -0.85900
O1198       O  0.36672225  0.34531506  0.36137574    -0.85600
O1199       O  0.37448452  0.29211718  0.40891428    -0.72300
O1200       O  0.34942577  0.29082202  0.38244154    -0.84500
Zr1201     Zr  0.39978960  0.24288855  0.35901624     2.26400
Zr1202     Zr  0.40723167  0.29516001  0.40363804     2.06300
Zr1203     Zr  0.35461749  0.29166822  0.34947333     2.10000
Zr1204     Zr  0.39924381  0.34726740  0.35657064     1.78800
O1205       O  0.32865139  0.25410528  0.34120936    -0.93300
O1206       O  0.42804663  0.37661429  0.36487533    -0.41100
O1207       O  0.38726523  0.29401377  0.34402861    -0.77700
O1208       O  0.41272077  0.29669794  0.37065108    -0.96400
O1209       O  0.39488235  0.24144618  0.39189067    -0.89700
O1210       O  0.36708457  0.23981941  0.36338119    -0.92500
C1211       C  0.37860508  0.42144148  0.37336789     1.01200
C1212       C  0.31936486  0.33539989  0.37210706     1.14100
C1213       C  0.38647979  0.34697044  0.43689211     1.04900
O1214       O  0.43386246  0.33260531  0.40951288    -0.94700
O1215       O  0.43512994  0.26107440  0.39818821    -0.90400
O1216       O  0.43203399  0.23684617  0.36934924    -0.83600
C1217       C  0.44144329  0.24413021  0.38413049     1.11600
O1218       O  0.34020628  0.24498627  0.42174521    -0.96700
Zr1219     Zr  0.36224386  0.23916034  0.39622650     1.88900
O1220       O  0.39150816  0.18195148  0.36533203    -0.73300
O1221       O  0.41244527  0.25854732  0.43108685    -0.52600
O1222       O  0.37348236  0.21047052  0.42454728    -0.97300
O1223       O  0.33165470  0.21596590  0.38878341    -0.54500
O1224       O  0.36873989  0.17960520  0.38708887    -0.73800
C1225       C  0.38001633  0.16520534  0.37569940     0.98500
O1226       O  0.42314863  0.21225767  0.34074976    -0.62700
O1227       O  0.34927282  0.33195724  0.32353828    -0.57500
O1228       O  0.39143286  0.23802776  0.32591878    -0.94100
O1229       O  0.36203999  0.25800001  0.32181718    -0.92600
O1230       O  0.38946821  0.37058766  0.32640320    -0.92900
O1231       O  0.42345941  0.34255694  0.33315799    -0.91700
C1232       C  0.37677814  0.24292171  0.31597489     1.17400
H1233       H  0.36048977  0.36498145  0.35566698     0.33300
H1234       H  0.42579838  0.29867090  0.36813730     0.44100
H1235       H  0.36174901  0.21960381  0.35737741     0.37700
H1236       H  0.37176274  0.29105565  0.42206993     0.34200
H1237       H  0.42674926  0.40063368  0.35985895     0.25900
H1238       H  0.42183141  0.27121710  0.43857145     0.31900
H1239       H  0.38537917  0.19951934  0.42099960     0.37800
H1240       H  0.38716500  0.34977066  0.31855820     0.32200
H1241       H  0.34121157  0.31894756  0.31477318     0.31100
H1242       H  0.32318780  0.26499430  0.32989317     0.32800
H1243       H  0.33389218  0.19653782  0.37998810     0.31800
H1244       H  0.42382070  0.31739345  0.33001312     0.35800
H1245       H  0.41661040  0.19251901  0.33472161     0.28500
H1246       H  0.34535253  0.39545161  0.41835585     0.32700
H1247       H  0.33726966  0.22081964  0.42572400     0.35600
H1248       H  0.34118730  0.35054487  0.32857199     0.28200
H1249       H  0.42646095  0.22827620  0.33039795     0.41100
H1250       H  0.43789561  0.32663468  0.42237100     0.31100
H1251       H  0.42749782  0.37943969  0.37859843     0.38700
H1252       H  0.32570034  0.23432581  0.38105047     0.30600
H1253       H  0.40090632  0.26035083  0.43844555     0.30700
H1254       H  0.33707267  0.35916230  0.42448429     0.30900
Zr1255     Zr  0.36246090  0.84286052  0.39570950     2.17500
O1256       O  0.33879286  0.87121099  0.41460986    -0.51400
O1257       O  0.36908884  0.90410287  0.38827452    -0.74600
O1258       O  0.37187307  0.85034172  0.42849488    -0.81400
O1259       O  0.32630770  0.82012542  0.35837802    -0.83200
O1260       O  0.40014822  0.82521347  0.43250679    -0.78800
O1261       O  0.32945721  0.84286418  0.38751601    -0.90400
O1262       O  0.39262208  0.90696412  0.36736785    -0.76400
O1263       O  0.39522483  0.84506939  0.39187311    -0.85900
O1264       O  0.36805986  0.84741007  0.36288566    -0.85600
O1265       O  0.37389368  0.78914609  0.40924583    -0.72300
O1266       O  0.34952732  0.79142340  0.38182950    -0.84500
Zr1267     Zr  0.39982101  0.74317276  0.35860989     2.26400
Zr1268     Zr  0.40679193  0.79135474  0.40467698     2.06300
Zr1269     Zr  0.35573470  0.79541013  0.34920273     2.10000
Zr1270     Zr  0.40080403  0.84801799  0.35910330     1.78800
O1271       O  0.32954617  0.76100956  0.33815462    -0.93300
O1272       O  0.43018384  0.87254166  0.36963961    -0.41100
O1273       O  0.38860479  0.79645690  0.34478312    -0.77700
O1274       O  0.41321346  0.79520066  0.37186477    -0.96400
O1275       O  0.39395493  0.73945928  0.39124606    -0.89700
O1276       O  0.36705271  0.74159150  0.36195926    -0.92500
C1277       C  0.38053550  0.92106559  0.37794287     1.01200
C1278       C  0.31972632  0.83420776  0.37316943     1.14100
C1279       C  0.38620528  0.84273812  0.43843722     1.04900
O1280       O  0.43382281  0.82729627  0.41133648    -0.94700
O1281       O  0.43437072  0.75644452  0.39925907    -0.90400
O1282       O  0.43105218  0.73233580  0.37041163    -0.83600
C1283       C  0.44036376  0.73866792  0.38535527     1.11600
O1284       O  0.33719504  0.74174726  0.41834478    -0.96700
Zr1285     Zr  0.36121316  0.73832477  0.39459018     1.88900
O1286       O  0.39119031  0.68187680  0.36341149    -0.73300
O1287       O  0.41098062  0.75203933  0.43118930    -0.52600
O1288       O  0.37037515  0.70640455  0.42265090    -0.97300
O1289       O  0.33118515  0.71630826  0.38422215    -0.54500
O1290       O  0.36813131  0.67983695  0.38482921    -0.73800
C1291       C  0.37942696  0.66534402  0.37355027     0.98500
O1292       O  0.42407032  0.71718091  0.33946295    -0.62700
O1293       O  0.35189901  0.83817703  0.32416303    -0.57500
O1294       O  0.39126554  0.73893063  0.32558955    -0.94100
O1295       O  0.36274832  0.76288496  0.32131312    -0.92600
O1296       O  0.39208931  0.87216858  0.32878290    -0.92900
O1297       O  0.42529742  0.84942744  0.33582561    -0.91700
C1298       C  0.37693952  0.74604344  0.31557578     1.17400
H1299       H  0.36223534  0.86789720  0.35758310     0.33300
H1300       H  0.42639577  0.79624284  0.36972874     0.44100
H1301       H  0.36171684  0.72212867  0.35528210     0.37700
H1302       H  0.37090821  0.78718610  0.42231387     0.34200
H1303       H  0.43055745  0.89635743  0.36421043     0.25900
H1304       H  0.42112226  0.76258892  0.43861581     0.31900
H1305       H  0.38274493  0.69665067  0.41980001     0.37800
H1306       H  0.38393241  0.89225263  0.33158887     0.32200
H1307       H  0.34378516  0.82651346  0.31491040     0.31100
H1308       H  0.32352452  0.77570151  0.32847029     0.32800
H1309       H  0.33152147  0.69089641  0.38682957     0.31800
H1310       H  0.42851506  0.82457886  0.33381903     0.35800
H1311       H  0.41837333  0.69641623  0.33355461     0.28500
H1312       H  0.34481250  0.89199843  0.42014923     0.32700
H1313       H  0.33423423  0.71723717  0.42165114     0.35600
H1314       H  0.34404771  0.85681342  0.32950397     0.28200
H1315       H  0.42628991  0.73381811  0.32908955     0.41100
H1316       H  0.43796943  0.81980887  0.42392824     0.31100
H1317       H  0.42855431  0.87641082  0.38319467     0.38700
H1318       H  0.33137592  0.71807431  0.37043259     0.30600
H1319       H  0.39977211  0.75521432  0.43891915     0.30700
H1320       H  0.33648251  0.85522906  0.42526030     0.30900
Zr1321     Zr  0.64682930  0.34353661  0.11032486     2.17500
O1322       O  0.66882803  0.37715688  0.09168177    -0.51400
O1323       O  0.64123969  0.40493156  0.11848633    -0.74600
O1324       O  0.63697937  0.35138014  0.07781724    -0.81400
O1325       O  0.68431998  0.31436593  0.14499544    -0.83200
O1326       O  0.60826164  0.32795015  0.07425835    -0.78800
O1327       O  0.68030674  0.33829937  0.11613769    -0.90400
O1328       O  0.61786944  0.40718056  0.13952855    -0.76400
O1329       O  0.61423778  0.34738010  0.11555071    -0.85900
O1330       O  0.64267855  0.34642078  0.14341257    -0.85600
O1331       O  0.63372436  0.29138224  0.09653268    -0.72300
O1332       O  0.65946939  0.29041673  0.12288095    -0.84500
Zr1333     Zr  0.60933666  0.24384603  0.14730775     2.26400
Zr1334     Zr  0.60107141  0.29542963  0.10246633     2.06300
Zr1335     Zr  0.65464302  0.29277836  0.15578315     2.10000
Zr1336     Zr  0.61013472  0.34851054  0.14856928     1.78800
O1337       O  0.68098647  0.26014308  0.16805349    -0.93300
O1338       O  0.58082373  0.37709379  0.14113642    -0.41100
O1339       O  0.62204821  0.29536066  0.16159969    -0.77700
O1340       O  0.59618118  0.29755101  0.13552736    -0.96400
O1341       O  0.61371408  0.24188757  0.11435728    -0.89700
O1342       O  0.64196259  0.24055146  0.14258502    -0.92500
C1343       C  0.62973156  0.42163979  0.12880525     1.01200
C1344       C  0.69052766  0.32826839  0.12993821     1.14100
C1345       C  0.62249254  0.34427339  0.06807354     1.04900
O1346       O  0.57527400  0.33539222  0.09727107    -0.94700
O1347       O  0.57313535  0.26212710  0.10932232    -0.90400
O1348       O  0.57699248  0.23683544  0.13789078    -0.83600
C1349       C  0.56723957  0.24442955  0.12338297     1.11600
O1350       O  0.66943809  0.24616602  0.08522805    -0.96700
Zr1351     Zr  0.64632690  0.23912173  0.10968263     1.88900
O1352       O  0.61739356  0.18263037  0.14120412    -0.73300
O1353       O  0.59317888  0.25959819  0.07552639    -0.52600
O1354       O  0.63668249  0.20885427  0.08136892    -0.97300
O1355       O  0.67590441  0.21300489  0.11858274    -0.54500
O1356       O  0.63874807  0.18025410  0.11807163    -0.73800
C1357       C  0.62806670  0.16593051  0.12999371     0.98500
O1358       O  0.58671717  0.21314390  0.16659931    -0.62700
O1359       O  0.65911431  0.33685459  0.17984784    -0.57500
O1360       O  0.61797617  0.24041454  0.18025517    -0.94100
O1361       O  0.64799114  0.25728437  0.18304495    -0.92600
O1362       O  0.62163968  0.37251288  0.17787370    -0.92900
O1363       O  0.58648583  0.34721837  0.17274231    -0.91700
C1364       C  0.63311286  0.24369219  0.18952829     1.17400
H1365       H  0.64900476  0.36633116  0.14868324     0.33300
H1366       H  0.58316810  0.29954056  0.13835469     0.44100
H1367       H  0.64728096  0.22033284  0.14868416     0.37700
H1368       H  0.63624429  0.28934315  0.08337988     0.34200
H1369       H  0.58140047  0.39998730  0.14751951     0.25900
H1370       H  0.58506355  0.27452267  0.06766874     0.31900
H1371       H  0.62410371  0.19994713  0.08409541     0.37800
H1372       H  0.61766857  0.39727100  0.17772641     0.32200
H1373       H  0.65380737  0.32641400  0.19130538     0.31100
H1374       H  0.68168750  0.23904518  0.16012860     0.32800
H1375       H  0.67300995  0.19628594  0.12873591     0.31800
H1376       H  0.59104359  0.32996363  0.18201661     0.35800
H1377       H  0.59358941  0.19406726  0.17294264     0.28500
H1378       H  0.66173556  0.39697847  0.08632449     0.32700
H1379       H  0.67313567  0.22216093  0.08171534     0.35600
H1380       H  0.67264464  0.33709963  0.18213902     0.28200
H1381       H  0.58325247  0.22957459  0.17665830     0.41100
H1382       H  0.57195193  0.33252657  0.08392962     0.31100
H1383       H  0.58166917  0.38292459  0.12768547     0.38700
H1384       H  0.68279471  0.23205174  0.12483407     0.30600
H1385       H  0.60483886  0.25760143  0.06837824     0.30700
H1386       H  0.67196297  0.36225341  0.08085884     0.30900
Zr1387     Zr  0.64712718  0.84401440  0.10833084     2.17500
O1388       O  0.66999111  0.87750638  0.09076699    -0.51400
O1389       O  0.64184884  0.90526641  0.11661271    -0.74600
O1390       O  0.63741358  0.85306387  0.07568169    -0.81400
O1391       O  0.68343946  0.82075152  0.14539066    -0.83200
O1392       O  0.60857021  0.83005402  0.07219374    -0.78800
O1393       O  0.68039569  0.83761372  0.11506097    -0.90400
O1394       O  0.61923396  0.90788350  0.13849196    -0.76400
O1395       O  0.61447202  0.84810087  0.11304347    -0.85900
O1396       O  0.64247621  0.84626187  0.14142072    -0.85600
O1397       O  0.63421000  0.79206478  0.09420941    -0.72300
O1398       O  0.65977070  0.79106158  0.12096802    -0.84500
Zr1399     Zr  0.60943328  0.74399742  0.14485278     2.26400
Zr1400     Zr  0.60154595  0.79602905  0.09990821     2.06300
Zr1401     Zr  0.65464243  0.79278505  0.15387283     2.10000
Zr1402     Zr  0.60986643  0.84902333  0.14595652     1.78800
O1403       O  0.68044350  0.75309947  0.15975811    -0.93300
O1404       O  0.58095109  0.87647210  0.13604979    -0.41100
O1405       O  0.62198055  0.79596270  0.15912104    -0.77700
O1406       O  0.59630092  0.79781500  0.13287569    -0.96400
O1407       O  0.61414404  0.74242437  0.11187739    -0.89700
O1408       O  0.64212147  0.74061717  0.14044250    -0.92500
C1409       C  0.63103579  0.92211939  0.12758760     1.01200
C1410       C  0.69012230  0.83139096  0.12983116     1.14100
C1411       C  0.62269808  0.84682249  0.06604457     1.04900
O1412       O  0.57593115  0.83687315  0.09602168    -0.94700
O1413       O  0.57375844  0.76207390  0.10625780    -0.90400
O1414       O  0.57687415  0.73891074  0.13542262    -0.83600
C1415       C  0.56740656  0.74594866  0.12061856     1.11600
O1416       O  0.66840422  0.74775907  0.08170747    -0.96700
Zr1417     Zr  0.64680781  0.73980912  0.10747769     1.88900
O1418       O  0.61739279  0.68268077  0.13801129    -0.73300
O1419       O  0.59338736  0.76358776  0.07181401    -0.52600
O1420       O  0.63767439  0.70728693  0.07972162    -0.97300
O1421       O  0.67708874  0.71626732  0.11600518    -0.54500
O1422       O  0.64003188  0.68067338  0.11615038    -0.73800
C1423       C  0.62877517  0.66607650  0.12745314     0.98500
O1424       O  0.58705163  0.71086198  0.16323554    -0.62700
O1425       O  0.66368220  0.82977302  0.18006380    -0.57500
O1426       O  0.61753430  0.74060705  0.17821294    -0.94100
O1427       O  0.64638078  0.76287317  0.18259058    -0.92600
O1428       O  0.61657911  0.87861347  0.17523242    -0.92900
O1429       O  0.58645820  0.84317343  0.17016875    -0.91700
C1430       C  0.63179281  0.74732005  0.18844427     1.17400
H1431       H  0.64870418  0.86609175  0.14686980     0.33300
H1432       H  0.58326826  0.80009382  0.13552853     0.44100
H1433       H  0.64735982  0.72032482  0.14655321     0.37700
H1434       H  0.63675123  0.79050044  0.08104110     0.34200
H1435       H  0.57913467  0.89598228  0.14490660     0.25900
H1436       H  0.59131297  0.73927353  0.07607613     0.31900
H1437       H  0.62400309  0.70902069  0.07928038     0.37800
H1438       H  0.62453773  0.86210483  0.18226163     0.32200
H1439       H  0.66500147  0.85361560  0.17485002     0.31100
H1440       H  0.67592720  0.73592387  0.16903842     0.32800
H1441       H  0.67476901  0.70057999  0.12676400     0.31800
H1442       H  0.58341725  0.81795469  0.17040680     0.35800
H1443       H  0.59415705  0.69163512  0.16916802     0.28500
H1444       H  0.66322305  0.89778722  0.08548461     0.32700
H1445       H  0.67330387  0.72417520  0.07894579     0.35600
H1446       H  0.65261252  0.83104477  0.18813059     0.28200
H1447       H  0.58335095  0.72627890  0.17365735     0.41100
H1448       H  0.56701880  0.83070447  0.10596907     0.31100
H1449       H  0.58389250  0.88809709  0.12405219     0.38700
H1450       H  0.68394058  0.73626752  0.12138726     0.30600
H1451       H  0.58091602  0.77225629  0.06830752     0.30700
H1452       H  0.67316898  0.86291025  0.07984259     0.30900
Zr1453     Zr  0.64749313  0.08778404  0.39642572     2.17500
O1454       O  0.67075948  0.05989466  0.41634950    -0.51400
O1455       O  0.64168529  0.02588505  0.38916768    -0.74600
O1456       O  0.63717748  0.07974129  0.42870954    -0.81400
O1457       O  0.68351651  0.10807491  0.35858494    -0.83200
O1458       O  0.60839674  0.10324735  0.43184307    -0.78800
O1459       O  0.68071304  0.08950899  0.38864205    -0.90400
O1460       O  0.61959321  0.02288276  0.36655538    -0.76400
O1461       O  0.61476537  0.08449000  0.39173474    -0.85900
O1462       O  0.64259514  0.08384436  0.36355006    -0.85600
O1463       O  0.63467709  0.14063251  0.40961753    -0.72300
O1464       O  0.66020318  0.14027852  0.38329465    -0.84500
Zr1465     Zr  0.60932421  0.18597778  0.35847488     2.26400
Zr1466     Zr  0.60185533  0.13732668  0.40407968     2.06300
Zr1467     Zr  0.65468580  0.13670643  0.35048843     2.10000
Zr1468     Zr  0.60994245  0.08134806  0.35889676     1.78800
O1469       O  0.68063332  0.17574711  0.34447155    -0.93300
O1470       O  0.58211374  0.05035603  0.36866619    -0.41100
O1471       O  0.62195236  0.13359786  0.34518354    -0.77700
O1472       O  0.59631231  0.13321844  0.37122728    -0.96400
O1473       O  0.61440122  0.18988573  0.39125009    -0.89700
O1474       O  0.64203109  0.18952969  0.36289752    -0.92500
C1475       C  0.63106695  0.00880686  0.37794608     1.01200
C1476       C  0.69028098  0.09584752  0.37385540     1.14100
C1477       C  0.62248456  0.08645773  0.43812743     1.04900
O1478       O  0.57532397  0.09991858  0.41033071    -0.94700
O1479       O  0.57365780  0.17060073  0.39746141    -0.90400
O1480       O  0.57753040  0.19594803  0.36895804    -0.83600
C1481       C  0.56779723  0.18874076  0.38348479     1.11600
O1482       O  0.67105125  0.18575438  0.41958582    -0.96700
Zr1483     Zr  0.64705284  0.19244130  0.39575985     1.88900
O1484       O  0.61669353  0.24755029  0.36412826    -0.73300
O1485       O  0.59683316  0.17666630  0.43026024    -0.52600
O1486       O  0.63748660  0.22036777  0.42469393    -0.97300
O1487       O  0.67581839  0.22137075  0.38687362    -0.54500
O1488       O  0.63845351  0.25109523  0.38707441    -0.73800
C1489       C  0.62734449  0.26484362  0.37518372     0.98500
O1490       O  0.58526043  0.20991316  0.33806292    -0.62700
O1491       O  0.66064702  0.09879357  0.32386247    -0.57500
O1492       O  0.61833293  0.18900188  0.32559472    -0.94100
O1493       O  0.64736876  0.16720151  0.32185219    -0.92600
O1494       O  0.61888435  0.05670870  0.32894585    -0.92900
O1495       O  0.58424092  0.08401111  0.33679467    -0.91700
C1496       C  0.63271955  0.18226845  0.31572189     1.17400
H1497       H  0.64881608  0.06371752  0.35844497     0.33300
H1498       H  0.58320823  0.13164979  0.36864441     0.44100
H1499       H  0.64714200  0.20953823  0.35647153     0.37700
H1500       H  0.63732383  0.14258271  0.42277308     0.34200
H1501       H  0.58261913  0.02761676  0.36212925     0.25900
H1502       H  0.58566938  0.16743465  0.43655938     0.31900
H1503       H  0.62493393  0.22962438  0.42206119     0.37800
H1504       H  0.61920380  0.07687617  0.32025492     0.32200
H1505       H  0.67376863  0.10312020  0.32064062     0.31100
H1506       H  0.68355420  0.17248564  0.33109287     0.32800
H1507       H  0.67308283  0.23327226  0.37487934     0.31800
H1508       H  0.58309788  0.10910199  0.33357633     0.35800
H1509       H  0.59087190  0.23043186  0.33181319     0.28500
H1510       H  0.66464182  0.03924436  0.42195453     0.32700
H1511       H  0.67422335  0.20977355  0.42356869     0.35600
H1512       H  0.66051609  0.07463706  0.32881443     0.28200
H1513       H  0.58334642  0.19247775  0.32804735     0.41100
H1514       H  0.56877114  0.09813050  0.39819559     0.31100
H1515       H  0.58429939  0.04443122  0.38196456     0.38700
H1516       H  0.68430981  0.20210687  0.38348880     0.30600
H1517       H  0.60711716  0.17181506  0.43908678     0.30700
H1518       H  0.67285074  0.07616636  0.42687920     0.30900
Zr1519     Zr  0.64494338  0.58622368  0.39519020     2.17500
O1520       O  0.66681970  0.55268565  0.41420437    -0.51400
O1521       O  0.63865837  0.52545553  0.38666479    -0.74600
O1522       O  0.63479084  0.57824878  0.42762994    -0.81400
O1523       O  0.68177005  0.60850257  0.35894186    -0.83200
O1524       O  0.60562932  0.60000163  0.43026359    -0.78800
O1525       O  0.67817307  0.58854447  0.38867887    -0.90400
O1526       O  0.61536925  0.52286965  0.36532077    -0.76400
O1527       O  0.61248218  0.58269526  0.38955525    -0.85900
O1528       O  0.64094076  0.58446295  0.36206061    -0.85600
O1529       O  0.63235238  0.63842127  0.40895248    -0.72300
O1530       O  0.65799477  0.63925628  0.38305035    -0.84500
Zr1531     Zr  0.60802249  0.68665244  0.35753525     2.26400
Zr1532     Zr  0.59982805  0.63496561  0.40261739     2.06300
Zr1533     Zr  0.65339397  0.63785055  0.34998809     2.10000
Zr1534     Zr  0.60847844  0.58201844  0.35649190     1.78800
O1535       O  0.67954641  0.67654166  0.34428061    -0.93300
O1536       O  0.57848799  0.55710651  0.36458497    -0.41100
O1537       O  0.62083622  0.63489835  0.34362511    -0.77700
O1538       O  0.59489709  0.63315543  0.36948773    -0.96400
O1539       O  0.61222374  0.68845122  0.39054521    -0.89700
O1540       O  0.64054121  0.68988361  0.36296590    -0.92500
C1541       C  0.62735519  0.50865716  0.37608050     1.01200
C1542       C  0.68801975  0.59516535  0.37417330     1.14100
C1543       C  0.61989967  0.58425818  0.43688283     1.04900
O1544       O  0.57278316  0.59815716  0.40768881    -0.94700
O1545       O  0.57242558  0.66961245  0.39652470    -0.90400
O1546       O  0.57588377  0.69398669  0.36767562    -0.83600
C1547       C  0.56635572  0.68666456  0.38234008     1.11600
O1548       O  0.66696639  0.68745610  0.42157346    -0.96700
Zr1549     Zr  0.64470597  0.69086711  0.39594188     1.88900
O1550       O  0.61590931  0.74804868  0.36396722    -0.73300
O1551       O  0.59528054  0.66981631  0.43063183    -0.52600
O1552       O  0.63253702  0.71812870  0.42406131    -0.97300
O1553       O  0.67496959  0.71500343  0.38824329    -0.54500
O1554       O  0.63757268  0.74997739  0.38707536    -0.73800
C1555       C  0.62680033  0.76457724  0.37517997     0.98500
O1556       O  0.58443871  0.71187567  0.33698778    -0.62700
O1557       O  0.66056989  0.59923433  0.32402813    -0.57500
O1558       O  0.61786412  0.69226770  0.32487734    -0.94100
O1559       O  0.64716957  0.67146158  0.32183074    -0.92600
O1560       O  0.62029400  0.55251825  0.32889968    -0.92900
O1561       O  0.58653068  0.58581757  0.33061568    -0.91700
C1562       C  0.63270968  0.68696882  0.31543564     1.17400
H1563       H  0.64726223  0.56465148  0.35670105     0.33300
H1564       H  0.58184343  0.63144838  0.36668316     0.44100
H1565       H  0.64592091  0.71011827  0.35698551     0.37700
H1566       H  0.63476593  0.64008368  0.42216921     0.34200
H1567       H  0.57739935  0.53581957  0.35684072     0.25900
H1568       H  0.59315595  0.69390351  0.42602677     0.31900
H1569       H  0.62160858  0.73169559  0.41983221     0.37800
H1570       H  0.61262611  0.53120093  0.32766445     0.32200
H1571       H  0.64979870  0.60122310  0.31548429     0.31100
H1572       H  0.68438291  0.66939389  0.33195037     0.32800
H1573       H  0.67293736  0.72894069  0.37674420     0.31800
H1574       H  0.57815301  0.60529950  0.33393542     0.35800
H1575       H  0.59031721  0.73223161  0.33083649     0.28500
H1576       H  0.65974836  0.53258307  0.41920449     0.32700
H1577       H  0.66912700  0.71192696  0.42546255     0.35600
H1578       H  0.67079520  0.61102523  0.31733201     0.28200
H1579       H  0.58245451  0.69458762  0.32691012     0.41100
H1580       H  0.56542280  0.60013572  0.39603405     0.31100
H1581       H  0.58009966  0.54816644  0.37748306     0.38700
H1582       H  0.68235767  0.69468352  0.38408426     0.30600
H1583       H  0.58310318  0.66227868  0.43550843     0.30700
H1584       H  0.66964767  0.56738501  0.42521324     0.30900
Zr1585     Zr  0.86303153  0.08792805  0.39595186     2.17500
O1586       O  0.84065373  0.11909059  0.41519302    -0.51400
O1587       O  0.87028887  0.14890355  0.38853835    -0.74600
O1588       O  0.87345182  0.09490546  0.42840416    -0.81400
O1589       O  0.82559640  0.06417404  0.35986312    -0.83200
O1590       O  0.90206469  0.07054428  0.43119834    -0.78800
O1591       O  0.82968623  0.08743740  0.38879247    -0.90400
O1592       O  0.89314013  0.15105848  0.36688207    -0.76400
O1593       O  0.89566777  0.08966103  0.39110235    -0.85900
O1594       O  0.86761500  0.09113356  0.36289759    -0.85600
O1595       O  0.87498390  0.03461833  0.40948709    -0.72300
O1596       O  0.84938139  0.03621704  0.38320505    -0.84500
Zr1597     Zr  0.89901051  0.98608206  0.35901210     2.26400
Zr1598     Zr  0.90771403  0.03620606  0.40367154     2.06300
Zr1599     Zr  0.85471029  0.03849137  0.35038460     2.10000
Zr1600     Zr  0.90027706  0.09165434  0.35824275     1.78800
O1601       O  0.82932376  0.00045885  0.34099036    -0.93300
O1602       O  0.92962100  0.11683070  0.36847627    -0.41100
O1603       O  0.88741000  0.03936688  0.34523423    -0.77700
O1604       O  0.91304614  0.03883309  0.37077990    -0.96400
O1605       O  0.89412679  0.98375315  0.39179209    -0.89700
O1606       O  0.86631057  0.98501491  0.36332358    -0.92500
C1607       C  0.88170454  0.16555206  0.37803538     1.01200
C1608       C  0.81951441  0.07880715  0.37471573     1.14100
C1609       C  0.88827344  0.08767014  0.43765905     1.04900
O1610       O  0.93519379  0.07247558  0.40744860    -0.94700
O1611       O  0.93513658  0.00146927  0.39752863    -0.90400
O1612       O  0.93120978  0.97751554  0.36876449    -0.83600
C1613       C  0.94096530  0.98427512  0.38338116     1.11600
O1614       O  0.83787069  0.98895048  0.42030400    -0.96700
Zr1615     Zr  0.86139864  0.98360367  0.39617129     1.88900
O1616       O  0.88929510  0.92535715  0.36530030    -0.73300
O1617       O  0.91318826  0.00062710  0.43141501    -0.52600
O1618       O  0.87030156  0.95471397  0.42522645    -0.97300
O1619       O  0.83138656  0.96137978  0.38585182    -0.54500
O1620       O  0.86765785  0.92419153  0.38819868    -0.73800
C1621       C  0.87814313  0.90921858  0.37636653     0.98500
O1622       O  0.92035896  0.95130135  0.34030683    -0.62700
O1623       O  0.84795092  0.07995121  0.32538153    -0.57500
O1624       O  0.89169494  0.98693169  0.32573880    -0.94100
O1625       O  0.86249763  0.00805855  0.32200245    -0.92600
O1626       O  0.89188667  0.11812462  0.32838778    -0.92900
O1627       O  0.92413085  0.08948419  0.33431622    -0.91700
C1628       C  0.87724599  0.99356551  0.31586980     1.17400
H1629       H  0.86165919  0.11143814  0.35752318     0.33300
H1630       H  0.92611401  0.04004381  0.36808492     0.44100
H1631       H  0.86069492  0.96535815  0.35705572     0.37700
H1632       H  0.87250986  0.03279554  0.42267191     0.34200
H1633       H  0.93140334  0.13764802  0.36043304     0.25900
H1634       H  0.91556389  0.97679332  0.42665300     0.31900
H1635       H  0.88248533  0.94394509  0.42261718     0.37800
H1636       H  0.88334258  0.13745446  0.33150942     0.32200
H1637       H  0.86000155  0.08376345  0.31916416     0.31100
H1638       H  0.82424242  0.01129245  0.32948188     0.32800
H1639       H  0.83411640  0.94496201  0.37557050     0.31800
H1640       H  0.92213153  0.06684859  0.32796847     0.35800
H1641       H  0.91259624  0.93425721  0.33345035     0.28500
H1642       H  0.84750981  0.13878763  0.42089016     0.32700
H1643       H  0.83349807  0.96483392  0.42270733     0.35600
H1644       H  0.84057448  0.06653424  0.31618575     0.28200
H1645       H  0.92526967  0.96726052  0.33060063     0.41100
H1646       H  0.93064690  0.09486753  0.41257748     0.31100
H1647       H  0.92705018  0.12661425  0.38098124     0.38700
H1648       H  0.82528257  0.98149485  0.37964233     0.30600
H1649       H  0.92532568  0.00862020  0.43626522     0.30700
H1650       H  0.83777669  0.10316331  0.42572253     0.30900
Zr1651     Zr  0.86018218  0.58718267  0.39581575     2.17500
O1652       O  0.83706810  0.61673793  0.41495031    -0.51400
O1653       O  0.86508708  0.64869168  0.38710151    -0.74600
O1654       O  0.87044011  0.59685102  0.42815794    -0.81400
O1655       O  0.82291972  0.55768857  0.36060750    -0.83200
O1656       O  0.89990838  0.57646024  0.43097651    -0.78800
O1657       O  0.82690504  0.58474064  0.38859667    -0.90400
O1658       O  0.88626360  0.65097722  0.36384313    -0.76400
O1659       O  0.89264088  0.59257994  0.39015271    -0.85900
O1660       O  0.86386965  0.58848067  0.36266357    -0.85600
O1661       O  0.87418253  0.53599458  0.40996587    -0.72300
O1662       O  0.84813012  0.53278404  0.38431189    -0.84500
Zr1663     Zr  0.89891179  0.48856558  0.35951243     2.26400
Zr1664     Zr  0.90675147  0.54152439  0.40366228     2.06300
Zr1665     Zr  0.85247944  0.53373516  0.35125845     2.10000
Zr1666     Zr  0.89626184  0.59275960  0.35705475     1.78800
O1667       O  0.82805774  0.49187751  0.34422520    -0.93300
O1668       O  0.92450818  0.62490385  0.36437640    -0.41100
O1669       O  0.88493903  0.53871132  0.34498038    -0.77700
O1670       O  0.91131215  0.54310079  0.37056950    -0.96400
O1671       O  0.89494089  0.48699326  0.39250897    -0.89700
O1672       O  0.86647256  0.48283938  0.36473614    -0.92500
C1673       C  0.87507808  0.66536789  0.37521339     1.01200
C1674       C  0.81676856  0.57388327  0.37495494     1.14100
C1675       C  0.88547672  0.59169774  0.43746200     1.04900
O1676       O  0.93286303  0.58134134  0.40664871    -0.94700
O1677       O  0.93492199  0.50784863  0.39779946    -0.90400
O1678       O  0.93105072  0.48223226  0.36943416    -0.83600
C1679       C  0.94083992  0.48999805  0.38385478     1.11600
O1680       O  0.83802896  0.48592936  0.42090236    -0.96700
Zr1681     Zr  0.86250081  0.48230563  0.39767865     1.88900
O1682       O  0.89287709  0.42703946  0.36648555    -0.73300
O1683       O  0.91451803  0.50783781  0.43157206    -0.52600
O1684       O  0.87194671  0.45856919  0.42786192    -0.97300
O1685       O  0.83421993  0.45159089  0.38886812    -0.54500
O1686       O  0.87269876  0.42374543  0.39067043    -0.73800
C1687       C  0.88328927  0.40985725  0.37848229     0.98500
O1688       O  0.92273421  0.46294519  0.33969154    -0.62700
O1689       O  0.84368338  0.57392734  0.32632080    -0.57500
O1690       O  0.88968751  0.48302183  0.32676521    -0.94100
O1691       O  0.86026212  0.50287399  0.32276495    -0.92600
O1692       O  0.88520485  0.61299071  0.32669329    -0.92900
O1693       O  0.92010430  0.59371243  0.33311011    -0.91700
C1694       C  0.87509971  0.48829690  0.31680789     1.17400
H1695       H  0.85709516  0.60764177  0.35707617     0.33300
H1696       H  0.92430975  0.54541481  0.36771744     0.44100
H1697       H  0.86157679  0.46199588  0.35896620     0.37700
H1698       H  0.87190343  0.53455897  0.42320218     0.34200
H1699       H  0.92239867  0.64883286  0.35950640     0.25900
H1700       H  0.92408131  0.52183494  0.43808690     0.31900
H1701       H  0.88454893  0.44917324  0.42579859     0.37800
H1702       H  0.88324578  0.63844492  0.32808419     0.32200
H1703       H  0.85493030  0.57617385  0.31856138     0.31100
H1704       H  0.82135405  0.50205501  0.33341003     0.32800
H1705       H  0.83813720  0.43310536  0.38009084     0.31800
H1706       H  0.92663240  0.57110028  0.33450811     0.35800
H1707       H  0.91685284  0.44287573  0.33330158     0.28500
H1708       H  0.84324320  0.63780823  0.41999805     0.32700
H1709       H  0.83016633  0.50567261  0.41668599     0.35600
H1710       H  0.83491360  0.56053115  0.31845996     0.28200
H1711       H  0.92513778  0.48035350  0.32972439     0.41100
H1712       H  0.93872264  0.57502317  0.41872360     0.31100
H1713       H  0.92439236  0.62756849  0.37811842     0.38700
H1714       H  0.82729858  0.46847884  0.38099806     0.30600
H1715       H  0.90345644  0.50938041  0.43965605     0.30700
H1716       H  0.83499725  0.60139221  0.42591202     0.30900
Zr1717     Zr  0.86202567  0.34202796  0.10871173     2.17500
O1718       O  0.83982186  0.30925937  0.08983616    -0.51400
O1719       O  0.86800359  0.28065810  0.11687516    -0.74600
O1720       O  0.87184828  0.33460823  0.07632121    -0.81400
O1721       O  0.82563604  0.36226401  0.14551476    -0.83200
O1722       O  0.90093365  0.35656550  0.07333070    -0.78800
O1723       O  0.82886601  0.34454391  0.11543917    -0.90400
O1724       O  0.89098196  0.27770226  0.13857021    -0.76400
O1725       O  0.89465511  0.33886850  0.11358864    -0.85900
O1726       O  0.86676796  0.33854057  0.14167033    -0.85600
O1727       O  0.87425496  0.39492060  0.09499645    -0.72300
O1728       O  0.84875531  0.39432668  0.12143039    -0.84500
Zr1729     Zr  0.89923360  0.44113127  0.14626775     2.26400
Zr1730     Zr  0.90695426  0.39180665  0.10077526     2.06300
Zr1731     Zr  0.85419852  0.39114540  0.15425941     2.10000
Zr1732     Zr  0.89935258  0.33659966  0.14653204     1.78800
O1733       O  0.82854562  0.42950577  0.16221875    -0.93300
O1734       O  0.92827356  0.30890790  0.13722436    -0.41100
O1735       O  0.88688208  0.38868518  0.15993632    -0.77700
O1736       O  0.91263377  0.38843490  0.13375015    -0.96400
O1737       O  0.89417415  0.44442529  0.11334281    -0.89700
O1738       O  0.86651374  0.44406669  0.14147365    -0.92500
C1739       C  0.87905684  0.26362508  0.12772129     1.01200
C1740       C  0.81918959  0.34997973  0.13016643     1.14100
C1741       C  0.88666037  0.34054596  0.06696606     1.04900
O1742       O  0.93436276  0.35560776  0.09667247    -0.94700
O1743       O  0.93422446  0.42695333  0.10669972    -0.90400
O1744       O  0.93152177  0.44799261  0.13625531    -0.83600
C1745       C  0.94071015  0.44241086  0.12118021     1.11600
O1746       O  0.83705326  0.43901982  0.08531178    -0.96700
Zr1747     Zr  0.86153291  0.44654966  0.10856734     1.88900
O1748       O  0.89163328  0.50231582  0.13979415    -0.73300
O1749       O  0.91253559  0.42784947  0.07322661    -0.52600
O1750       O  0.87101514  0.47307235  0.07910884    -0.97300
O1751       O  0.83251116  0.47533602  0.11670856    -0.54500
O1752       O  0.86974006  0.50536465  0.11697310    -0.73800
C1753       C  0.88092379  0.51933852  0.12864016     0.98500
O1754       O  0.92117605  0.47348115  0.16564175    -0.62700
O1755       O  0.84768876  0.35112974  0.17997336    -0.57500
O1756       O  0.89080416  0.44186763  0.17964103    -0.94100
O1757       O  0.86130909  0.42203231  0.18268273    -0.92600
O1758       O  0.89006016  0.30897745  0.17569023    -0.92900
O1759       O  0.92281852  0.34053386  0.17097543    -0.91700
C1760       C  0.87605977  0.43602187  0.18923500     1.17400
H1761       H  0.86066952  0.31838690  0.14696317     0.33300
H1762       H  0.92572245  0.38646081  0.13632691     0.44100
H1763       H  0.86124433  0.46403016  0.14774880     0.37700
H1764       H  0.87164710  0.39675584  0.08182000     0.34200
H1765       H  0.92944855  0.28818495  0.14546537     0.25900
H1766       H  0.92252806  0.41567442  0.06640198     0.31900
H1767       H  0.88130474  0.48901166  0.08240950     0.37800
H1768       H  0.88421276  0.32794141  0.18295675     0.32200
H1769       H  0.83755173  0.36250805  0.18696568     0.31100
H1770       H  0.82288065  0.43586306  0.15006105     0.32800
H1771       H  0.83192312  0.49630908  0.10858970     0.31800
H1772       H  0.92277029  0.36543530  0.17467908     0.35800
H1773       H  0.91380887  0.49159253  0.17209652     0.28500
H1774       H  0.84686883  0.28984524  0.08414081     0.32700
H1775       H  0.83537202  0.46213262  0.07928367     0.35600
H1776       H  0.84181270  0.33042572  0.17419966     0.28200
H1777       H  0.92518783  0.45710429  0.17560526     0.41100
H1778       H  0.94155760  0.36745730  0.08675971     0.31100
H1779       H  0.92570086  0.29908436  0.12470305     0.38700
H1780       H  0.83453273  0.48481221  0.12939681     0.30600
H1781       H  0.90139488  0.42490325  0.06527440     0.30700
H1782       H  0.83645006  0.32481315  0.07926884     0.30900
Zr1783     Zr  0.86169797  0.84153823  0.10969642     2.17500
O1784       O  0.83816987  0.81434169  0.08990899    -0.51400
O1785       O  0.86773486  0.78002319  0.11680837    -0.74600
O1786       O  0.87161258  0.83238312  0.07740558    -0.81400
O1787       O  0.82575162  0.86337425  0.14687504    -0.83200
O1788       O  0.90030411  0.85586450  0.07405454    -0.78800
O1789       O  0.82875135  0.84141211  0.11755911    -0.90400
O1790       O  0.89082748  0.77687789  0.13835288    -0.76400
O1791       O  0.89446857  0.83849427  0.11384905    -0.85900
O1792       O  0.86700678  0.83726882  0.14262799    -0.85600
O1793       O  0.87362409  0.89466955  0.09609295    -0.72300
O1794       O  0.84898798  0.89370320  0.12301164    -0.84500
Zr1795     Zr  0.90000570  0.94032754  0.14661976     2.26400
Zr1796     Zr  0.90649124  0.89182082  0.10105109     2.06300
Zr1797     Zr  0.85502345  0.89003524  0.15573430     2.10000
Zr1798     Zr  0.89972767  0.83527152  0.14666233     1.78800
O1799       O  0.83018696  0.92951373  0.16475667    -0.93300
O1800       O  0.92796227  0.80628378  0.13632457    -0.41100
O1801       O  0.88787119  0.88757061  0.16031360    -0.77700
O1802       O  0.91276778  0.88737178  0.13386068    -0.96400
O1803       O  0.89424241  0.94451159  0.11395533    -0.89700
O1804       O  0.86717733  0.94319982  0.14301979    -0.92500
C1805       C  0.87901976  0.76295886  0.12734598     1.01200
C1806       C  0.81914098  0.84920282  0.13203397     1.14100
C1807       C  0.88629407  0.83881803  0.06792973     1.04900
O1808       O  0.93432914  0.86058775  0.09172152    -0.94700
O1809       O  0.93505481  0.92336299  0.10728167    -0.90400
O1810       O  0.93190227  0.94786691  0.13599561    -0.83600
C1811       C  0.94135209  0.94032927  0.12136605     1.11600
O1812       O  0.83621051  0.94254251  0.08766203    -0.96700
Zr1813     Zr  0.86142438  0.94633347  0.11031223     1.88900
O1814       O  0.89174928  0.00206522  0.14125664    -0.73300
O1815       O  0.90819823  0.93241638  0.07485892    -0.52600
O1816       O  0.87013978  0.97414472  0.08098892    -0.97300
O1817       O  0.83259994  0.97279620  0.12097504    -0.54500
O1818       O  0.86949268  0.00521051  0.11879787    -0.73800
C1819       C  0.88060500  0.01923271  0.13051786     0.98500
O1820       O  0.92383887  0.96760599  0.16603313    -0.62700
O1821       O  0.84827554  0.84946352  0.18112492    -0.57500
O1822       O  0.89266579  0.94211992  0.17976633    -0.94100
O1823       O  0.86399512  0.91918312  0.18426867    -0.92600
O1824       O  0.89113791  0.80982914  0.17665397    -0.92900
O1825       O  0.92454627  0.83591485  0.16981187    -0.91700
C1826       C  0.87866725  0.93468118  0.18999119     1.17400
H1827       H  0.86094296  0.81715448  0.14802419     0.33300
H1828       H  0.92588353  0.88547914  0.13627110     0.44100
H1829       H  0.86207821  0.96303327  0.14954304     0.37700
H1830       H  0.87072514  0.89624773  0.08296303     0.34200
H1831       H  0.92420876  0.79238749  0.12530095     0.25900
H1832       H  0.92035967  0.92758835  0.06907466     0.31900
H1833       H  0.88206849  0.98588376  0.08367760     0.37800
H1834       H  0.89326797  0.78441518  0.17527523     0.32200
H1835       H  0.85907455  0.85101547  0.18965383     0.31100
H1836       H  0.82304584  0.91646091  0.17426820     0.32800
H1837       H  0.83622503  0.98985319  0.13068677     0.31800
H1838       H  0.92138396  0.85545670  0.17824960     0.35800
H1839       H  0.91764947  0.98681101  0.17283116     0.28500
H1840       H  0.84392553  0.79292874  0.08480729     0.32700
H1841       H  0.83367192  0.96691325  0.08372515     0.35600
H1842       H  0.83802104  0.86054411  0.18808267     0.28200
H1843       H  0.92720216  0.95016294  0.17572763     0.41100
H1844       H  0.93124316  0.83556047  0.09332344     0.31100
H1845       H  0.93577810  0.82514043  0.13110217     0.38700
H1846       H  0.82623427  0.95395450  0.12794199     0.30600
H1847       H  0.89901776  0.92379179  0.06565792     0.30700
H1848       H  0.83649947  0.83012373  0.07903534     0.30900
Zr1849     Zr  0.14634847  0.09119824  0.11071556     2.17500
O1850       O  0.16898606  0.12696756  0.09417830    -0.51400
O1851       O  0.13853387  0.15171574  0.11847366    -0.74600
O1852       O  0.13783402  0.09843101  0.07746089    -0.81400
O1853       O  0.18293085  0.06520635  0.14774828    -0.83200
O1854       O  0.10910124  0.07521449  0.07339755    -0.78800
O1855       O  0.17959277  0.08816112  0.11856530    -0.90400
O1856       O  0.11466602  0.15354483  0.13898784    -0.76400
O1857       O  0.11354238  0.09292275  0.11445756    -0.85900
O1858       O  0.14064404  0.09333308  0.14365056    -0.85600
O1859       O  0.13502322  0.03825494  0.09641188    -0.72300
O1860       O  0.15945647  0.03917217  0.12397808    -0.84500
Zr1861     Zr  0.10899384  0.98930661  0.14630830     2.26400
Zr1862     Zr  0.10211089  0.04003545  0.10081280     2.06300
Zr1863     Zr  0.15327780  0.04069596  0.15666933     2.10000
Zr1864     Zr  0.10782801  0.09385865  0.14724297     1.78800
O1865       O  0.17874533  0.00375067  0.16724669    -0.93300
O1866       O  0.07800882  0.11716067  0.13712493    -0.41100
O1867       O  0.12044621  0.04174864  0.16081892    -0.77700
O1868       O  0.09554114  0.04199494  0.13359898    -0.96400
O1869       O  0.11508327  0.98754205  0.11362440    -0.89700
O1870       O  0.14183944  0.98776080  0.14311370    -0.92500
C1871       C  0.12666080  0.16819237  0.12847287     1.01200
C1872       C  0.18945477  0.07933934  0.13287762     1.14100
C1873       C  0.12340533  0.09166726  0.06742589     1.04900
O1874       O  0.07487855  0.07625527  0.09525722    -0.94700
O1875       O  0.07465111  0.00437222  0.10572958    -0.90400
O1876       O  0.07739683  0.98050330  0.13477662    -0.83600
C1877       C  0.06825365  0.98718330  0.11972585     1.11600
O1878       O  0.17234890  0.99352126  0.08731563    -0.96700
Zr1879     Zr  0.14790623  0.98694164  0.11045292     1.88900
O1880       O  0.11759646  0.92841477  0.13984603    -0.73300
O1881       O  0.09800606  0.00358668  0.07325259    -0.52600
O1882       O  0.14140921  0.95742838  0.08105731    -0.97300
O1883       O  0.17717154  0.96347467  0.12218703    -0.54500
O1884       O  0.14000068  0.92775868  0.11769209    -0.73800
C1885       C  0.12884091  0.91254432  0.12884984     0.98500
O1886       O  0.08541312  0.96015487  0.16513623    -0.62700
O1887       O  0.15891580  0.08395984  0.18091458    -0.57500
O1888       O  0.11643819  0.98518513  0.17970310    -0.94100
O1889       O  0.14489259  0.00878407  0.18477049    -0.92600
O1890       O  0.11419470  0.12393341  0.17651934    -0.92900
O1891       O  0.08489129  0.08576822  0.17174063    -0.91700
C1892       C  0.13042538  0.99223578  0.19019736     1.17400
H1893       H  0.14637454  0.11359967  0.14921154     0.33300
H1894       H  0.08236643  0.04312527  0.13574071     0.44100
H1895       H  0.14705091  0.96775293  0.14949995     0.37700
H1896       H  0.13811274  0.03657891  0.08336790     0.34200
H1897       H  0.07561679  0.13702237  0.14560548     0.25900
H1898       H  0.08737603  0.01409135  0.06648724     0.31900
H1899       H  0.12791890  0.95285254  0.08126119     0.37800
H1900       H  0.12578799  0.13710763  0.17437100     0.32200
H1901       H  0.14886229  0.08030720  0.19007341     0.31100
H1902       H  0.18364326  0.01543972  0.17855099     0.32800
H1903       H  0.17387612  0.94818303  0.13283982     0.31800
H1904       H  0.08708085  0.06178426  0.17649434     0.35800
H1905       H  0.09175454  0.94062442  0.17164452     0.28500
H1906       H  0.16186172  0.14652966  0.08860356     0.32700
H1907       H  0.17770712  0.96989822  0.08572658     0.35600
H1908       H  0.17025640  0.07575569  0.18740067     0.28200
H1909       H  0.08197491  0.97683057  0.17509126     0.41100
H1910       H  0.06744923  0.07413905  0.10679866     0.31100
H1911       H  0.08049871  0.12823647  0.12487515     0.38700
H1912       H  0.18354172  0.98366757  0.12795628     0.30600
H1913       H  0.10885186  0.00851878  0.06524670     0.30700
H1914       H  0.17301450  0.11274988  0.08339938     0.30900
Zr1915     Zr  0.14669663  0.59013006  0.10883755     2.17500
O1916       O  0.16886162  0.62366641  0.09038415    -0.51400
O1917       O  0.14132283  0.65174347  0.11691145    -0.74600
O1918       O  0.13644543  0.59744114  0.07616273    -0.81400
O1919       O  0.18372070  0.56704044  0.14551869    -0.83200
O1920       O  0.10729055  0.57533620  0.07368156    -0.78800
O1921       O  0.18007653  0.58622642  0.11562532    -0.90400
O1922       O  0.11991459  0.65417276  0.13996684    -0.76400
O1923       O  0.11413306  0.59400279  0.11401834    -0.85900
O1924       O  0.14261182  0.59296380  0.14193583    -0.85600
O1925       O  0.13347209  0.53759069  0.09555791    -0.72300
O1926       O  0.15957727  0.53714837  0.12152263    -0.84500
Zr1927     Zr  0.10922215  0.49123102  0.14662406     2.26400
Zr1928     Zr  0.10083928  0.54154672  0.10158035     2.06300
Zr1929     Zr  0.15484416  0.53967980  0.15446440     2.10000
Zr1930     Zr  0.11007718  0.59576616  0.14698646     1.78800
O1931       O  0.18054351  0.50045897  0.16137084    -0.93300
O1932       O  0.08206650  0.62497656  0.13594366    -0.41100
O1933       O  0.12227919  0.54313689  0.16023728    -0.77700
O1934       O  0.09609152  0.54443998  0.13452338    -0.96400
O1935       O  0.11355793  0.48842149  0.11374809    -0.89700
O1936       O  0.14181218  0.48734606  0.14182652    -0.92500
C1937       C  0.13114403  0.66852685  0.12853609     1.01200
C1938       C  0.19004966  0.57942246  0.13016269     1.14100
C1939       C  0.12146553  0.59110284  0.06694103     1.04900
O1940       O  0.07396774  0.57985428  0.09961843    -0.94700
O1941       O  0.07341315  0.50634800  0.10771611    -0.90400
O1942       O  0.07722914  0.48269215  0.13666629    -0.83600
C1943       C  0.06754913  0.48924091  0.12197229     1.11600
O1944       O  0.16852026  0.49357983  0.08388061    -0.96700
Zr1945     Zr  0.14609686  0.48539573  0.10889503     1.88900
O1946       O  0.11602540  0.42971031  0.14022690    -0.73300
O1947       O  0.09272903  0.50634489  0.07445104    -0.52600
O1948       O  0.13581093  0.45637045  0.08042661    -0.97300
O1949       O  0.17575010  0.45921367  0.11744177    -0.54500
O1950       O  0.13818656  0.42643634  0.11786679    -0.73800
C1951       C  0.12682406  0.41251339  0.12936174     0.98500
O1952       O  0.08471103  0.46769525  0.16639100    -0.62700
O1953       O  0.16316116  0.57710186  0.18067466    -0.57500
O1954       O  0.11848102  0.48514393  0.17929542    -0.94100
O1955       O  0.14707076  0.50904459  0.18299015    -0.92600
O1956       O  0.11784776  0.62147255  0.17708563    -0.92900
O1957       O  0.08578829  0.59216512  0.17038361    -0.91700
C1958       C  0.13290364  0.49241815  0.18907189     1.17400
H1959       H  0.14903802  0.61275370  0.14721691     0.33300
H1960       H  0.08304588  0.54615324  0.13727426     0.44100
H1961       H  0.14695460  0.46710723  0.14806397     0.37700
H1962       H  0.13580821  0.53554543  0.08236755     0.34200
H1963       H  0.08102908  0.64612151  0.14379773     0.25900
H1964       H  0.08511604  0.52181837  0.06639202     0.31900
H1965       H  0.14092516  0.43240486  0.08124116     0.37800
H1966       H  0.13002775  0.63279732  0.17522805     0.32200
H1967       H  0.16745643  0.59929507  0.17503739     0.31100
H1968       H  0.18454313  0.50684574  0.17415956     0.32800
H1969       H  0.17609397  0.43677029  0.11061944     0.31800
H1970       H  0.08460756  0.56687106  0.17307882     0.35800
H1971       H  0.09007389  0.44704742  0.17279387     0.28500
H1972       H  0.16188796  0.64396500  0.08540024     0.32700
H1973       H  0.17183074  0.46982798  0.07960237     0.35600
H1974       H  0.15122016  0.58302524  0.18661988     0.28200
H1975       H  0.08275548  0.48521433  0.17634064     0.41100
H1976       H  0.06902877  0.57637593  0.08684201     0.31100
H1977       H  0.08521955  0.63409803  0.12339721     0.38700
H1978       H  0.17449367  0.45235091  0.13071470     0.30600
H1979       H  0.10449292  0.50335159  0.06758389     0.30700
H1980       H  0.17165709  0.60915077  0.07932562     0.30900
Zr1981     Zr  0.14796501  0.33807897  0.39547951     2.17500
O1982       O  0.17036976  0.30300829  0.41304346    -0.51400
O1983       O  0.14264170  0.27652024  0.38781733    -0.74600
O1984       O  0.13868643  0.32997188  0.42805963    -0.81400
O1985       O  0.18383174  0.36101220  0.35881321    -0.83200
O1986       O  0.10926127  0.35040009  0.43104739    -0.78800
O1987       O  0.18103941  0.34410590  0.38913348    -0.90400
O1988       O  0.11956023  0.27309280  0.36633318    -0.76400
O1989       O  0.11547668  0.33279815  0.39020966    -0.85900
O1990       O  0.14379017  0.33597451  0.36236718    -0.85600
O1991       O  0.13453172  0.38951563  0.40944894    -0.72300
O1992       O  0.16010669  0.39210636  0.38347289    -0.84500
Zr1993     Zr  0.10883929  0.43628341  0.35853036     2.26400
Zr1994     Zr  0.10195168  0.38431417  0.40335528     2.06300
Zr1995     Zr  0.15519609  0.39038237  0.35046488     2.10000
Zr1996     Zr  0.11133333  0.33156211  0.35719734     1.78800
O1997       O  0.18040362  0.43191245  0.34640920    -0.93300
O1998       O  0.08202958  0.30331513  0.36465568    -0.41100
O1999       O  0.12260283  0.38538122  0.34441096    -0.77700
O2000       O  0.09687132  0.38182112  0.37032921    -0.96400
O2001       O  0.11335052  0.43869884  0.39144807    -0.89700
O2002       O  0.14141779  0.44151729  0.36355451    -0.92500
C2003       C  0.13145081  0.25926407  0.37734822     1.01200
C2004       C  0.19058031  0.34995090  0.37433896     1.14100
C2005       C  0.12382154  0.33527163  0.43745320     1.04900
O2006       O  0.07607297  0.34445694  0.40769135    -0.94700
O2007       O  0.07360393  0.41670296  0.39731718    -0.90400
O2008       O  0.07643592  0.44135937  0.36849708    -0.83600
C2009       C  0.06708746  0.43351701  0.38320270     1.11600
O2010       O  0.16887094  0.44195147  0.42145284    -0.96700
Zr2011     Zr  0.14584325  0.44284339  0.39649408     1.88900
O2012       O  0.11566340  0.49823926  0.36474633    -0.73300
O2013       O  0.09490759  0.42008532  0.43051100    -0.52600
O2014       O  0.13361549  0.46636387  0.42551103    -0.97300
O2015       O  0.17466031  0.47329735  0.38951032    -0.54500
O2016       O  0.13712847  0.50139345  0.38796864    -0.73800
C2017       C  0.12618234  0.51540109  0.37603699     0.98500
O2018       O  0.08425129  0.46045983  0.33885744    -0.62700
O2019       O  0.16452194  0.35515328  0.32380234    -0.57500
O2020       O  0.11805812  0.44279635  0.32592357    -0.94100
O2021       O  0.14746907  0.42274463  0.32225186    -0.92600
O2022       O  0.12262939  0.30289012  0.32915276    -0.92900
O2023       O  0.08839059  0.33356906  0.33219172    -0.91700
C2024       C  0.13269191  0.43760478  0.31617390     1.17400
H2025       H  0.15040822  0.31657066  0.35693830     0.33300
H2026       H  0.08383936  0.37924241  0.36761599     0.44100
H2027       H  0.14633210  0.46213556  0.35753982     0.37700
H2028       H  0.13707217  0.39145680  0.42262018     0.34200
H2029       H  0.08240343  0.28068308  0.35800280     0.25900
H2030       H  0.08515395  0.40703664  0.43725797     0.31900
H2031       H  0.12218938  0.47900798  0.42184941     0.37800
H2032       H  0.12544910  0.32222268  0.32040875     0.32200
H2033       H  0.15381362  0.35571752  0.31513050     0.31100
H2034       H  0.18744564  0.42304574  0.33557781     0.32800
H2035       H  0.17272314  0.48385740  0.37701287     0.31800
H2036       H  0.08437930  0.35829374  0.33170042     0.35800
H2037       H  0.08924037  0.48261154  0.33377404     0.28500
H2038       H  0.16323249  0.28366951  0.41875789     0.32700
H2039       H  0.17107511  0.41683292  0.42395868     0.35600
H2040       H  0.17415993  0.36918992  0.31745936     0.28200
H2041       H  0.08313357  0.44468234  0.32797446     0.41100
H2042       H  0.07007435  0.35236755  0.41934528     0.31100
H2043       H  0.08311090  0.29692221  0.37802441     0.38700
H2044       H  0.18384600  0.45451885  0.38739989     0.30600
H2045       H  0.10597759  0.41831408  0.43866924     0.30700
H2046       H  0.17429703  0.31771667  0.42370079     0.30900
Zr2047     Zr  0.14713741  0.83762893  0.39741781     2.17500
O2048       O  0.16949552  0.80432259  0.41595577    -0.51400
O2049       O  0.14044685  0.77645130  0.38922146    -0.74600
O2050       O  0.13683813  0.82917705  0.42985890    -0.81400
O2051       O  0.18411842  0.86185562  0.36115484    -0.83200
O2052       O  0.10711223  0.84835145  0.43163185    -0.78800
O2053       O  0.18060420  0.84173306  0.39086646    -0.90400
O2054       O  0.11753151  0.77429775  0.36742876    -0.76400
O2055       O  0.11464744  0.83366252  0.39154068    -0.85900
O2056       O  0.14319848  0.83620560  0.36425655    -0.85600
O2057       O  0.13392315  0.88953465  0.41126132    -0.72300
O2058       O  0.15997645  0.89113415  0.38553331    -0.84500
Zr2059     Zr  0.10942496  0.93765065  0.36018846     2.26400
Zr2060     Zr  0.10137743  0.88529462  0.40472034     2.06300
Zr2061     Zr  0.15533194  0.89021454  0.35248919     2.10000
Zr2062     Zr  0.11073307  0.83337163  0.35846812     1.78800
O2063       O  0.17997528  0.93283932  0.34813364    -0.93300
O2064       O  0.08043285  0.80766837  0.36436717    -0.41100
O2065       O  0.12281770  0.88665072  0.34619084    -0.77700
O2066       O  0.09643673  0.88378874  0.37164831    -0.96400
O2067       O  0.11378706  0.93917882  0.39321233    -0.89700
O2068       O  0.14198745  0.94178942  0.36549583    -0.92500
C2069       C  0.12910064  0.75980386  0.37854370     1.01200
C2070       C  0.19053530  0.84915081  0.37645569     1.14100
C2071       C  0.12151233  0.83366447  0.43865480     1.04900
O2072       O  0.07420723  0.84792717  0.40697480    -0.94700
O2073       O  0.07399063  0.92056819  0.39918691    -0.90400
O2074       O  0.07716668  0.94402212  0.37013223    -0.83600
C2075       C  0.06776827  0.93732815  0.38494121     1.11600
O2076       O  0.16902921  0.93677315  0.42364738    -0.96700
Zr2077     Zr  0.14633626  0.94237467  0.39848123     1.88900
O2078       O  0.11721315  0.99878237  0.36636399    -0.73300
O2079       O  0.09440759  0.91831332  0.43290601    -0.52600
O2080       O  0.13671104  0.97126231  0.42712403    -0.97300
O2081       O  0.17578435  0.96917748  0.38996977    -0.54500
O2082       O  0.13847438  0.00128576  0.38979731    -0.73800
C2083       C  0.12782608  0.01553290  0.37767278     0.98500
O2084       O  0.08669400  0.96830531  0.34081113    -0.62700
O2085       O  0.16440323  0.85574990  0.32545777    -0.57500
O2086       O  0.11782911  0.93970428  0.32700600    -0.94100
O2087       O  0.14745830  0.92061095  0.32378171    -0.92600
O2088       O  0.12300784  0.80579154  0.33053653    -0.92900
O2089       O  0.08918352  0.83745309  0.33228590    -0.91700
C2090       C  0.13253672  0.93442910  0.31733793     1.17400
H2091       H  0.14961268  0.81647376  0.35894081     0.33300
H2092       H  0.08340109  0.88180657  0.36877871     0.44100
H2093       H  0.14714336  0.96220036  0.35949169     0.37700
H2094       H  0.13617693  0.89100629  0.42450718     0.34200
H2095       H  0.08116361  0.78374684  0.35920124     0.25900
H2096       H  0.08782278  0.90185573  0.44125868     0.31900
H2097       H  0.12373845  0.97848778  0.42478621     0.37800
H2098       H  0.12641699  0.82548518  0.32223529     0.32200
H2099       H  0.17771233  0.86093065  0.32366445     0.31100
H2100       H  0.18788887  0.92281267  0.33824732     0.32800
H2101       H  0.17336507  0.98196831  0.37817038     0.31800
H2102       H  0.09083071  0.86146111  0.32737462     0.35800
H2103       H  0.09359222  0.98712382  0.33435193     0.28500
H2104       H  0.16249733  0.78449913  0.42135736     0.32700
H2105       H  0.17315545  0.96087621  0.42644239     0.35600
H2106       H  0.16412054  0.83113593  0.32971465     0.28200
H2107       H  0.08309291  0.95171211  0.33085173     0.41100
H2108       H  0.06863795  0.85381901  0.41917765     0.31100
H2109       H  0.08004604  0.80416933  0.37805958     0.38700
H2110       H  0.18382379  0.94940514  0.38632303     0.30600
H2111       H  0.10656561  0.92208401  0.43901616     0.30700
H2112       H  0.17264521  0.81936352  0.42674213     0.30900
C2113       C  0.12215323  0.67028357  0.37086466     0.29700
C2114       C  0.11456554  0.64080156  0.36201272    -0.36700
C2115       C  0.12044395  0.60821026  0.36885764     0.15600
C2116       C  0.13290399  0.60502485  0.38342729     0.21500
C2117       C  0.14048177  0.63447927  0.39226839    -0.34800
C2118       C  0.13464824  0.66703003  0.38539881     0.15600
O2119       O  0.11863264  0.70317283  0.36668017    -0.26800
C2120       C  0.12904618  0.72130876  0.37861908     0.05300
C2121       C  0.13932058  0.70016740  0.39063842    -0.31700
O2122       O  0.13645712  0.57219988  0.38766110    -0.23500
C2123       C  0.12614326  0.55392335  0.37571130    -0.03500
C2124       C  0.11588482  0.57497133  0.36360086    -0.18000
H2125       H  0.10477881  0.64313604  0.35058353     0.20000
H2126       H  0.15026765  0.63214959  0.40369858     0.18400
H2127       H  0.14878496  0.70805562  0.40160248     0.18300
H2128       H  0.10646697  0.56697435  0.35262006     0.14200
C2129       C  0.13628884  0.10488608  0.38305877     0.29700
C2130       C  0.14501776  0.13450898  0.39054901    -0.36700
C2131       C  0.13844346  0.16687090  0.38411140     0.15600
C2132       C  0.12425873  0.16968278  0.37121103     0.21500
C2133       C  0.11558345  0.14008749  0.36368932    -0.34800
C2134       C  0.12216981  0.10777798  0.37009171     0.15600
O2135       O  0.14006426  0.07216991  0.38728999    -0.26800
C2136       C  0.12826171  0.05383545  0.37688771     0.05300
C2137       C  0.11679243  0.07459500  0.36583118    -0.31700
O2138       O  0.12015244  0.20233986  0.36723817    -0.23500
C2139       C  0.13182498  0.22086534  0.37767529    -0.03500
C2140       C  0.14359469  0.20019436  0.38850370    -0.18000
H2141       H  0.15608533  0.13243827  0.40073710     0.20000
H2142       H  0.10442462  0.14214964  0.35360291     0.18400
H2143       H  0.10600163  0.06645102  0.35624962     0.18300
H2144       H  0.15425194  0.20847955  0.39820033     0.14200
C2145       C  0.12384621  0.46887372  0.23550101     0.29700
C2146       C  0.11292173  0.46156006  0.25120667    -0.36700
C2147       C  0.12249597  0.45771586  0.26819658     0.15600
C2148       C  0.14153069  0.46015245  0.26957808     0.21500
C2149       C  0.15242408  0.46775221  0.25392016    -0.34800
C2150       C  0.14283348  0.47215758  0.23701561     0.15600
O2151       O  0.11779802  0.47449529  0.21832504    -0.26800
C2152       C  0.13311959  0.48179638  0.20880189     0.05300
C2153       C  0.14908383  0.48069769  0.21972012    -0.31700
O2154       O  0.14765870  0.45411418  0.28666715    -0.23500
C2155       C  0.13232662  0.44828673  0.29643694    -0.03500
C2156       C  0.11624958  0.45044119  0.28570134    -0.18000
H2157       H  0.09800706  0.45926185  0.25027271     0.20000
H2158       H  0.16733454  0.47014855  0.25485672     0.18400
H2159       H  0.16319904  0.48604709  0.21555411     0.18300
H2160       H  0.10210939  0.44588333  0.29003967     0.14200
C2161       C  0.13746070  0.75897914  0.12220956     0.29700
C2162       C  0.14391129  0.78987603  0.11387302    -0.36700
C2163       C  0.13692116  0.82114682  0.12127673     0.15600
C2164       C  0.12440912  0.82213407  0.13580306     0.21500
C2165       C  0.11804482  0.79132182  0.14416164    -0.34800
C2166       C  0.12508060  0.76013260  0.13683780     0.15600
O2167       O  0.14171613  0.72663699  0.11732614    -0.26800
C2168       C  0.13190493  0.70698850  0.12906291     0.05300
C2169       C  0.12143690  0.72655035  0.14151695    -0.31700
O2170       O  0.11966666  0.85427171  0.14045761    -0.23500
C2171       C  0.12934072  0.87414264  0.12877921    -0.03500
C2172       C  0.14029336  0.85490401  0.11656112    -0.18000
H2173       H  0.15360204  0.78959541  0.10238192     0.20000
H2174       H  0.10823025  0.79160515  0.15554330     0.18400
H2175       H  0.11211025  0.71727766  0.15224320     0.18300
H2176       H  0.14946525  0.86448963  0.10577524     0.14200
C2177       C  0.11988975  0.25816447  0.13477462     0.29700
C2178       C  0.11211752  0.28829255  0.14272016    -0.36700
C2179       C  0.11911730  0.32032300  0.13627263     0.15600
C2180       C  0.13275721  0.32246217  0.12287461     0.21500
C2181       C  0.14050793  0.29237323  0.11493076    -0.34800
C2182       C  0.13357672  0.26039048  0.12143063     0.15600
O2183       O  0.11559449  0.22556451  0.13889452    -0.26800
C2184       C  0.12671296  0.20664908  0.12809570     0.05300
C2185       C  0.13819726  0.22695364  0.11691057    -0.31700
O2186       O  0.13723157  0.35496907  0.11883930    -0.23500
C2187       C  0.12636220  0.37404687  0.12979076    -0.03500
C2188       C  0.11478487  0.35387597  0.14098272    -0.18000
H2189       H  0.10142741  0.28684657  0.15324434     0.20000
H2190       H  0.15125144  0.29381322  0.10446119     0.18400
H2191       H  0.14849508  0.21831703  0.10699720     0.18300
H2192       H  0.10463774  0.36265258  0.15101597     0.14200
C2193       C  0.12231857  0.95599064  0.27059450     0.29700
C2194       C  0.11108595  0.96261162  0.25485780    -0.36700
C2195       C  0.12043780  0.96862627  0.23794754     0.15600
C2196       C  0.13951197  0.96869048  0.23673716     0.21500
C2197       C  0.15069124  0.96164809  0.25236892    -0.34800
C2198       C  0.14136572  0.95520318  0.26915705     0.15600
O2199       O  0.11659732  0.94947738  0.28777775    -0.26800
C2200       C  0.13220574  0.94413050  0.29738476     0.05300
C2201       C  0.14801806  0.94730449  0.28647213    -0.31700
O2202       O  0.14543384  0.97650734  0.21984231    -0.23500
C2203       C  0.12999556  0.98105908  0.20992114    -0.03500
C2204       C  0.11397313  0.97622329  0.22042011    -0.18000
H2205       H  0.09612837  0.96309340  0.25574254     0.20000
H2206       H  0.16565270  0.96137476  0.25151258     0.18400
H2207       H  0.16233661  0.94412997  0.29069823     0.18300
H2208       H  0.09971540  0.97914216  0.21594188     0.14200
C2209       C  0.98775742  0.95984888  0.11136812     0.29700
C2210       C  0.00330553  0.96624207  0.10012435    -0.36700
C2211       C  0.02033646  0.96921975  0.10954505     0.15600
C2212       C  0.02196598  0.96578353  0.12867822     0.21500
C2213       C  0.00640357  0.95992777  0.13992626    -0.34800
C2214       C  0.98937123  0.95743693  0.13054636     0.15600
O2215       O  0.97059197  0.95489411  0.10550442    -0.26800
C2216       C  0.96106009  0.94998640  0.12117934     0.05300
C2217       C  0.97202011  0.95146580  0.13717816    -0.31700
O2218       O  0.03913032  0.96999098  0.13461444    -0.23500
C2219       C  0.04866654  0.97650439  0.11912337    -0.03500
C2220       C  0.03767418  0.97638429  0.10308164    -0.18000
H2221       H  0.00220523  0.96868829  0.08509634     0.20000
H2222       H  0.00749156  0.95762822  0.15496249     0.18400
H2223       H  0.96790660  0.94716049  0.15152588     0.18300
H2224       H  0.04177442  0.98183103  0.08884188     0.14200
C2225       C  0.88630439  0.67346154  0.13377794     0.29700
C2226       C  0.89458325  0.64369165  0.14170504    -0.36700
C2227       C  0.88800336  0.61149496  0.13521126     0.15600
C2228       C  0.87431175  0.60893743  0.12177186     0.21500
C2229       C  0.86610727  0.63869650  0.11379378    -0.34800
C2230       C  0.87259627  0.67086295  0.12036189     0.15600
O2231       O  0.89019764  0.70608077  0.13793422    -0.26800
C2232       C  0.87883613  0.72465602  0.12708859     0.05300
C2233       C  0.86753288  0.70415231  0.11581778    -0.31700
O2234       O  0.87012949  0.57635286  0.11783533    -0.23500
C2235       C  0.88122381  0.55767906  0.12889196    -0.03500
C2236       C  0.89270798  0.57813217  0.14004227    -0.18000
H2237       H  0.90529740  0.64553377  0.15227607     0.20000
H2238       H  0.85532430  0.63686136  0.10329662     0.18400
H2239       H  0.85718076  0.71253187  0.10577882     0.18300
H2240       H  0.90294864  0.56967156  0.15017954     0.14200
C2241       C  0.87248469  0.10905964  0.12460567     0.29700
C2242       C  0.86447695  0.13879502  0.11628160    -0.36700
C2243       C  0.87100394  0.17116972  0.12265378     0.15600
C2244       C  0.88440091  0.17397413  0.13636519     0.21500
C2245       C  0.89226702  0.14425584  0.14482037    -0.34800
C2246       C  0.88584167  0.11187549  0.13835329     0.15600
O2247       O  0.86890971  0.07631466  0.12027426    -0.26800
C2248       C  0.88011715  0.05776014  0.13133994     0.05300
C2249       C  0.89096105  0.07854280  0.14296706    -0.31700
O2250       O  0.88884853  0.20667746  0.13985779    -0.23500
C2251       C  0.87818990  0.22519499  0.12826009    -0.03500
C2252       C  0.86673290  0.20447954  0.11721588    -0.18000
H2253       H  0.85412263  0.13679810  0.10536187     0.20000
H2254       H  0.90290038  0.14626436  0.15546216     0.18400
H2255       H  0.90126416  0.07032863  0.15309272     0.18300
H2256       H  0.85690806  0.21273001  0.10662210     0.14200
C2257       C  0.02114301  0.46865692  0.11239674     0.29700
C2258       C  0.00524889  0.46407635  0.10130580    -0.36700
C2259       C  0.98850981  0.45998337  0.11097250     0.15600
C2260       C  0.98743925  0.46066672  0.13021283     0.21500
C2261       C  0.00336969  0.46458886  0.14129667    -0.34800
C2262       C  0.02012901  0.46823430  0.13164507     0.15600
O2263       O  0.03805946  0.47499105  0.10632980    -0.26800
C2264       C  0.04805866  0.47803677  0.12190619     0.05300
C2265       C  0.03765025  0.47371592  0.13806520    -0.31700
O2266       O  0.97038754  0.45620386  0.13633159    -0.23500
C2267       C  0.96039557  0.45232084  0.12081883    -0.03500
C2268       C  0.97096361  0.45435071  0.10461796    -0.18000
H2269       H  0.00586343  0.46403600  0.08620420     0.20000
H2270       H  0.00273321  0.46490433  0.15639558     0.18400
H2271       H  0.04215955  0.47632348  0.15243381     0.18300
H2272       H  0.96642988  0.45121183  0.09028877     0.14200
C2273       C  0.02008387  0.45196525  0.37471380     0.29700
C2274       C  0.00388555  0.45595041  0.36397716    -0.36700
C2275       C  0.98767863  0.46392506  0.37387877     0.15600
C2276       C  0.98741493  0.46822780  0.39300709     0.21500
C2277       C  0.00354044  0.46345285  0.40378994    -0.34800
C2278       C  0.01971224  0.45501558  0.39391122     0.15600
O2279       O  0.03682190  0.44495959  0.36832819    -0.26800
C2280       C  0.04729702  0.44308521  0.38365894     0.05300
C2281       C  0.03734038  0.44880890  0.39998392    -0.31700
O2282       O  0.97091796  0.47756673  0.39923012    -0.23500
C2283       C  0.96040482  0.47870580  0.38389905    -0.03500
C2284       C  0.97010265  0.47019555  0.36776250    -0.18000
H2285       H  0.00393991  0.45332120  0.34893025     0.20000
H2286       H  0.00352797  0.46645983  0.41881409     0.18400
H2287       H  0.04240538  0.44854649  0.41423540     0.18300
H2288       H  0.96505822  0.46993758  0.35350177     0.14200
C2289       C  0.88493642  0.45442623  0.23656557     0.29700
C2290       C  0.89564954  0.45921166  0.25279226    -0.36700
C2291       C  0.88578151  0.46555388  0.26931744     0.15600
C2292       C  0.86669948  0.46751337  0.26981490     0.21500
C2293       C  0.85598981  0.46220648  0.25367705    -0.34800
C2294       C  0.86584171  0.45549913  0.23722178     0.15600
O2295       O  0.89122680  0.44827283  0.21956471    -0.26800
C2296       C  0.87592722  0.44507172  0.20925015     0.05300
C2297       C  0.85975766  0.44916014  0.21955438    -0.31700
O2298       O  0.86037476  0.47526106  0.28656755    -0.23500
C2299       C  0.87558705  0.47785886  0.29703411    -0.03500
C2300       C  0.89179566  0.47186151  0.28706146    -0.18000
H2301       H  0.91062597  0.45822486  0.25254086     0.20000
H2302       H  0.84101619  0.46345915  0.25390590     0.18400
H2303       H  0.84556205  0.44759706  0.21469790     0.18300
H2304       H  0.90595432  0.47314070  0.29204733     0.14200
C2305       C  0.88147749  0.81907997  0.36791367     0.29700
C2306       C  0.88805304  0.78848894  0.35954279    -0.36700
C2307       C  0.88081560  0.75706664  0.36650545     0.15600
C2308       C  0.86799469  0.75558598  0.38074068     0.21500
C2309       C  0.86124318  0.78622707  0.38896959    -0.34800
C2310       C  0.86850185  0.81768891  0.38200975     0.15600
O2311       O  0.88671300  0.85131457  0.36392792    -0.26800
C2312       C  0.87692162  0.87084323  0.37561880     0.05300
C2313       C  0.86533994  0.85126587  0.38714628    -0.31700
O2314       O  0.86383913  0.72319145  0.38563699    -0.23500
C2315       C  0.87413450  0.70376049  0.37432558    -0.03500
C2316       C  0.88484569  0.72352260  0.36207860    -0.18000
H2317       H  0.89833282  0.78909461  0.34858842     0.20000
H2318       H  0.85130017  0.78558120  0.40023520     0.18400
H2319       H  0.85603873  0.86047950  0.39788290     0.18300
H2320       H  0.89464091  0.71442734  0.35176610     0.14200
C2321       C  0.88964345  0.25554466  0.37280700     0.29700
C2322       C  0.89829144  0.28567649  0.36572186    -0.36700
C2323       C  0.89121383  0.31772654  0.37197004     0.15600
C2324       C  0.87670149  0.31984889  0.38439732     0.21500
C2325       C  0.86806530  0.28977484  0.39145262    -0.34800
C2326       C  0.87509585  0.25778752  0.38518045     0.15600
O2327       O  0.89387239  0.22293543  0.36872740    -0.26800
C2328       C  0.88188662  0.20402844  0.37861666     0.05300
C2329       C  0.86987450  0.22436255  0.38914422    -0.31700
O2330       O  0.87223203  0.35233433  0.38835418    -0.23500
C2331       C  0.88394828  0.37143382  0.37829711    -0.03500
C2332       C  0.89610877  0.35130959  0.36778509    -0.18000
H2333       H  0.90966992  0.28422171  0.35596289     0.20000
H2334       H  0.85660729  0.29123894  0.40111534     0.18400
H2335       H  0.85886150  0.21576579  0.39828009     0.18300
H2336       H  0.90689795  0.36013347  0.35844042     0.14200
C2337       C  0.02105522  0.95490722  0.37563436     0.29700
C2338       C  0.00498906  0.95665493  0.36457805    -0.36700
C2339       C  0.98836619  0.96237090  0.37414653     0.15600
C2340       C  0.98763439  0.96682576  0.39324987     0.21500
C2341       C  0.00367343  0.96457239  0.40435693    -0.34800
C2342       C  0.02026731  0.95819725  0.39480940     0.15600
O2343       O  0.03797472  0.94878258  0.36961188    -0.26800
C2344       C  0.04815945  0.94767739  0.38512932     0.05300
C2345       C  0.03786991  0.95324877  0.40125631    -0.31700
O2346       O  0.97076936  0.97397317  0.39912871    -0.23500
C2347       C  0.96051338  0.97349907  0.38362974    -0.03500
C2348       C  0.97071221  0.96613154  0.36767540    -0.18000
H2349       H  0.00541718  0.95364168  0.34956143     0.20000
H2350       H  0.00324257  0.96760024  0.41937404     0.18400
H2351       H  0.04261248  0.95286465  0.41562035     0.18300
H2352       H  0.96596633  0.96549468  0.35331652     0.14200
C2353       C  0.88738084  0.97380221  0.26939732     0.29700
C2354       C  0.89847309  0.96869299  0.25358194    -0.36700
C2355       C  0.88901202  0.95940762  0.23717505     0.15600
C2356       C  0.87002997  0.95504337  0.23652681     0.21500
C2357       C  0.85897510  0.96064864  0.25220161    -0.34800
C2358       C  0.86836163  0.97036096  0.26845964     0.15600
O2359       O  0.89318240  0.98210432  0.28629313    -0.26800
C2360       C  0.87761341  0.98437569  0.29609564     0.05300
C2361       C  0.86176737  0.97758327  0.28570689    -0.31700
O2362       O  0.86403425  0.94563104  0.21995043    -0.23500
C2363       C  0.87929271  0.94436984  0.20971124    -0.03500
C2364       C  0.89530450  0.95275225  0.21963052    -0.18000
H2365       H  0.91337418  0.97167568  0.25404532     0.20000
H2366       H  0.84407748  0.95760486  0.25174795     0.18400
H2367       H  0.84750173  0.97749014  0.29030387     0.18300
H2368       H  0.90944678  0.95345028  0.21467981     0.14200
C2369       C  0.73537078  0.58778768  0.38453790     0.29700
C2370       C  0.75166802  0.59131243  0.39522471    -0.36700
C2371       C  0.76841434  0.58634782  0.38560716     0.15600
C2372       C  0.76897246  0.57800560  0.36687615     0.21500
C2373       C  0.75276942  0.57480073  0.35621379    -0.34800
C2374       C  0.73614087  0.58018564  0.36572554     0.15600
O2375       O  0.71820531  0.59253493  0.39036906    -0.26800
C2376       C  0.70799810  0.58821701  0.37499725     0.05300
C2377       C  0.71843723  0.58053153  0.35929650    -0.31700
O2378       O  0.78594740  0.57335493  0.36075661    -0.23500
C2379       C  0.79656926  0.57911009  0.37564829    -0.03500
C2380       C  0.78643251  0.58753849  0.39154390    -0.18000
H2381       H  0.75132267  0.59775997  0.40992485     0.20000
H2382       H  0.75311423  0.56871680  0.34146615     0.18400
H2383       H  0.71366568  0.57676231  0.34508913     0.18300
H2384       H  0.79155226  0.59261687  0.40550306     0.14200
C2385       C  0.62509104  0.91938660  0.36941807     0.29700
C2386       C  0.61748189  0.89014494  0.36039838    -0.36700
C2387       C  0.62276922  0.85743750  0.36750294     0.15600
C2388       C  0.63478449  0.85387144  0.38242163     0.21500
C2389       C  0.64244342  0.88313112  0.39141579    -0.34800
C2390       C  0.63711973  0.91587321  0.38433035     0.15600
O2391       O  0.62167472  0.95229825  0.36528442    -0.26800
C2392       C  0.63164449  0.97030745  0.37763675     0.05300
C2393       C  0.64160349  0.94899365  0.38987212    -0.31700
O2394       O  0.63770393  0.82092636  0.38690328    -0.23500
C2395       C  0.62740440  0.80304352  0.37476331    -0.03500
C2396       C  0.61779392  0.82441677  0.36230191    -0.18000
H2397       H  0.60796573  0.89275511  0.34875567     0.20000
H2398       H  0.65178453  0.88052191  0.40320170     0.18400
H2399       H  0.65054524  0.95673616  0.40130120     0.18300
H2400       H  0.60850490  0.81676562  0.35113863     0.14200
C2401       C  0.62222522  0.41900972  0.36812521     0.29700
C2402       C  0.61477601  0.38899928  0.35973414    -0.36700
C2403       C  0.62110718  0.35693835  0.36683875     0.15600
C2404       C  0.63396031  0.35470692  0.38111906     0.21500
C2405       C  0.64153844  0.38468521  0.38936317    -0.34800
C2406       C  0.63514942  0.41668917  0.38233486     0.15600
O2407       O  0.61784471  0.45158039  0.36410056    -0.26800
C2408       C  0.62811066  0.47034762  0.37585819     0.05300
C2409       C  0.63921666  0.45004039  0.38750092    -0.31700
O2410       O  0.63772360  0.32220760  0.38582240    -0.23500
C2411       C  0.62717611  0.30323538  0.37443601    -0.03500
C2412       C  0.61651213  0.32344014  0.36228061    -0.18000
H2413       H  0.60457908  0.39055448  0.34863686     0.20000
H2414       H  0.65154181  0.38314233  0.40063803     0.18400
H2415       H  0.64868168  0.45859896  0.39832018     0.18300
H2416       H  0.60679346  0.31473100  0.35172925     0.14200
C2417       C  0.73794576  0.08983786  0.38407311     0.29700
C2418       C  0.75412741  0.09128774  0.39512000    -0.36700
C2419       C  0.77104333  0.08930655  0.38545924     0.15600
C2420       C  0.77187401  0.08582365  0.36630081     0.21500
C2421       C  0.75579641  0.08482933  0.35529449    -0.34800
C2422       C  0.73898642  0.08701780  0.36489996     0.15600
O2423       O  0.72063364  0.09180589  0.39001409    -0.26800
C2424       C  0.71053403  0.09039837  0.37438664     0.05300
C2425       C  0.72128348  0.08747021  0.35838348    -0.31700
O2426       O  0.78894305  0.08269102  0.36014838    -0.23500
C2427       C  0.79936178  0.08460029  0.37546969    -0.03500
C2428       C  0.78899434  0.08891031  0.39169328    -0.18000
H2429       H  0.75356930  0.09370570  0.41016220     0.20000
H2430       H  0.75636128  0.08228795  0.34025502     0.18400
H2431       H  0.71669717  0.08666684  0.34397369     0.18300
H2432       H  0.79391006  0.09000541  0.40598354     0.14200
C2433       C  0.77190492  0.83798534  0.12138882     0.29700
C2434       C  0.75595160  0.83640231  0.11002614    -0.36700
C2435       C  0.73887795  0.83617912  0.11944486     0.15600
C2436       C  0.73769786  0.83682437  0.13867857     0.21500
C2437       C  0.75354984  0.83846824  0.14996364    -0.34800
C2438       C  0.77050403  0.83924431  0.14059034     0.15600
O2439       O  0.78928259  0.83997734  0.11568986    -0.26800
C2440       C  0.79901686  0.84280150  0.13149492     0.05300
C2441       C  0.78800946  0.84247312  0.14736544    -0.31700
O2442       O  0.72050695  0.83587922  0.14466906    -0.23500
C2443       C  0.71037757  0.83513209  0.12912965    -0.03500
C2444       C  0.72104126  0.83528829  0.11294280    -0.18000
H2445       H  0.75677879  0.83591950  0.09493972     0.20000
H2446       H  0.75270583  0.83950726  0.16504156     0.18400
H2447       H  0.79228101  0.84519371  0.16179972     0.18300
H2448       H  0.71635053  0.83399867  0.09858233     0.14200
C2449       C  0.64095423  0.72639182  0.23546359     0.29700
C2450       C  0.65202103  0.72010184  0.25132782    -0.36700
C2451       C  0.64253537  0.71228922  0.26791588     0.15600
C2452       C  0.62345998  0.71132116  0.26890972     0.21500
C2453       C  0.61240485  0.71730804  0.25300236    -0.34800
C2454       C  0.62189431  0.72451316  0.23633492     0.15600
O2455       O  0.64691453  0.73437491  0.21856994    -0.26800
C2456       C  0.63149805  0.73717371  0.20836926     0.05300
C2457       C  0.61550090  0.73112272  0.21868827    -0.31700
O2458       O  0.61748632  0.70327964  0.28580139    -0.23500
C2459       C  0.63292813  0.69859645  0.29574591    -0.03500
C2460       C  0.64894472  0.70382132  0.28531158    -0.18000
H2461       H  0.66699016  0.72098991  0.25074358     0.20000
H2462       H  0.59744264  0.71610491  0.25355024     0.18400
H2463       H  0.60125272  0.73225453  0.21396086     0.18300
H2464       H  0.66320817  0.70132888  0.28984815     0.14200
C2465       C  0.63727906  0.51192909  0.12338464     0.29700
C2466       C  0.64623457  0.54252729  0.11745230    -0.36700
C2467       C  0.63799162  0.57413759  0.12289794     0.15600
C2468       C  0.62204759  0.57571721  0.13344261     0.21500
C2469       C  0.61312077  0.54514832  0.13938007    -0.34800
C2470       C  0.62137293  0.51358410  0.13397801     0.15600
O2471       O  0.64249280  0.47944563  0.11993969    -0.26800
C2472       C  0.62976242  0.46014057  0.12854922     0.05300
C2473       C  0.61633317  0.48007308  0.13747819    -0.31700
O2474       O  0.61665630  0.60812222  0.13675218    -0.23500
C2475       C  0.62930533  0.62757259  0.12814740    -0.03500
C2476       C  0.64290593  0.60775675  0.11935356    -0.18000
H2477       H  0.65871861  0.54177537  0.10914845     0.20000
H2478       H  0.60059462  0.54589155  0.14761787     0.18400
H2479       H  0.60451227  0.47108738  0.14540784     0.18300
H2480       H  0.65465912  0.61687823  0.11136650     0.14200
C2481       C  0.62529752  0.01157004  0.13578537     0.29700
C2482       C  0.61761824  0.04098337  0.14447054    -0.36700
C2483       C  0.62327542  0.07347017  0.13750130     0.15600
C2484       C  0.63563005  0.07669837  0.12294855     0.21500
C2485       C  0.64335427  0.04726938  0.11426336    -0.34800
C2486       C  0.63772829  0.01472956  0.12128948     0.15600
O2487       O  0.62161740  0.97879467  0.13990820    -0.26800
C2488       C  0.63182922  0.96053228  0.12798066     0.05300
C2489       C  0.64223425  0.98151374  0.11604998    -0.31700
O2490       O  0.63887064  0.10952660  0.11856586    -0.23500
C2491       C  0.62846846  0.12759931  0.13043442    -0.03500
C2492       C  0.61845621  0.10654980  0.14260143    -0.18000
H2493       H  0.60782738  0.03866048  0.15580899     0.20000
H2494       H  0.65299967  0.04960981  0.10279570     0.18400
H2495       H  0.65144571  0.97349211  0.10497060     0.18300
H2496       H  0.60901253  0.11444591  0.15350460     0.14200
C2497       C  0.77198623  0.33987523  0.11965262     0.29700
C2498       C  0.75572844  0.34167913  0.10874642    -0.36700
C2499       C  0.73896268  0.33695112  0.11839672     0.15600
C2500       C  0.73839885  0.33033748  0.13735205     0.21500
C2501       C  0.75454791  0.32851439  0.14817019    -0.34800
C2502       C  0.77116408  0.33378828  0.13864269     0.15600
O2503       O  0.78912524  0.34516640  0.11386752    -0.26800
C2504       C  0.79923931  0.34271861  0.12943820     0.05300
C2505       C  0.78877658  0.33568447  0.14522891    -0.31700
O2506       O  0.72143712  0.32681078  0.14366285    -0.23500
C2507       C  0.71079312  0.33155579  0.12868659    -0.03500
C2508       C  0.72091350  0.33797858  0.11247515    -0.18000
H2509       H  0.75610611  0.34708599  0.09390582     0.20000
H2510       H  0.75414837  0.32396055  0.16309181     0.18400
H2511       H  0.79345590  0.33322840  0.15956167     0.18300
H2512       H  0.71575177  0.34233018  0.09844207     0.14200
C2513       C  0.62390097  0.21796054  0.23559361     0.29700
C2514       C  0.61293346  0.21125527  0.25134065    -0.36700
C2515       C  0.62256117  0.20387421  0.26794843     0.15600
C2516       C  0.64165034  0.20250345  0.26891616     0.21500
C2517       C  0.65260922  0.20933655  0.25320572    -0.34800
C2518       C  0.64299306  0.21730538  0.23668878     0.15600
O2519       O  0.61785126  0.22652147  0.21877794    -0.26800
C2520       C  0.63328153  0.23175307  0.20905303     0.05300
C2521       C  0.64933050  0.22639066  0.21948604    -0.31700
O2522       O  0.64774833  0.19481621  0.28580942    -0.23500
C2523       C  0.63237678  0.19175502  0.29585908    -0.03500
C2524       C  0.61628398  0.19713615  0.28549934    -0.18000
H2525       H  0.59796132  0.21222955  0.25074961     0.20000
H2526       H  0.66758636  0.20890947  0.25387134     0.18400
H2527       H  0.66357378  0.22923213  0.21507547     0.18300
H2528       H  0.60206744  0.19576892  0.29018549     0.14200
C2529       C  0.27255340  0.84385853  0.38412860     0.29700
C2530       C  0.25685315  0.84788004  0.39554420    -0.36700
C2531       C  0.23953680  0.84499310  0.38652953     0.15600
C2532       C  0.23790327  0.83912813  0.36758174     0.21500
C2533       C  0.25350922  0.83476149  0.35628294    -0.34800
C2534       C  0.27069113  0.83726115  0.36528106     0.15600
O2535       O  0.29011123  0.84492528  0.38949691    -0.26800
C2536       C  0.29948881  0.83884311  0.37382814     0.05300
C2537       C  0.28806762  0.83380728  0.35839517    -0.31700
O2538       O  0.22056806  0.83892847  0.36179964    -0.23500
C2539       C  0.21076946  0.84402477  0.37723824    -0.03500
C2540       C  0.22182859  0.84791128  0.39312235    -0.18000
H2541       H  0.25804803  0.85286162  0.41037054     0.20000
H2542       H  0.25233144  0.82988132  0.34144318     0.18400
H2543       H  0.29201904  0.82773013  0.34420027     0.18300
H2544       H  0.21748630  0.85362487  0.40723602     0.14200
C2545       C  0.52016819  0.70556550  0.39292709     0.29700
C2546       C  0.50484914  0.71215415  0.40441790    -0.36700
C2547       C  0.48776998  0.71619127  0.39522250     0.15600
C2548       C  0.48587236  0.71309398  0.37610365     0.21500
C2549       C  0.50118022  0.70665513  0.36464014    -0.34800
C2550       C  0.51829827  0.70357965  0.37376637     0.15600
O2551       O  0.53741600  0.70078502  0.39850180    -0.26800
C2552       C  0.54673975  0.69654084  0.38266604     0.05300
C2553       C  0.53557185  0.69812634  0.36683162    -0.31700
O2554       O  0.46881427  0.71899256  0.37033637    -0.23500
C2555       C  0.45964228  0.72639101  0.38589644    -0.03500
C2556       C  0.47072478  0.72503797  0.40185366    -0.18000
H2557       H  0.50620857  0.71455683  0.41941956     0.20000
H2558       H  0.49988652  0.70495409  0.34960476     0.18400
H2559       H  0.53951174  0.69433529  0.35240740     0.18300
H2560       H  0.46692217  0.73094115  0.41610790     0.14200
C2561       C  0.37123715  0.51163554  0.37840739     0.29700
C2562       C  0.36453205  0.54212309  0.38676172    -0.36700
C2563       C  0.37104464  0.57366694  0.37928766     0.15600
C2564       C  0.38329267  0.57540894  0.36455882     0.21500
C2565       C  0.38985060  0.54486972  0.35603108    -0.34800
C2566       C  0.38338036  0.51323019  0.36357878     0.15600
O2567       O  0.36761672  0.47928687  0.38372651    -0.26800
C2568       C  0.37760164  0.45984012  0.37216306     0.05300
C2569       C  0.38759868  0.47960577  0.35928652    -0.31700
O2570       O  0.38799949  0.60787310  0.36033380    -0.23500
C2571       C  0.37854681  0.62700809  0.37252462    -0.03500
C2572       C  0.36776634  0.60704155  0.38456909    -0.18000
H2573       H  0.35518165  0.54132088  0.39852980     0.20000
H2574       H  0.39959426  0.54567433  0.34459139     0.18400
H2575       H  0.39697446  0.47048664  0.34859502     0.18300
H2576       H  0.35900432  0.61588669  0.39584140     0.14200
C2577       C  0.38624761  0.01091844  0.37045022     0.29700
C2578       C  0.39426876  0.04098758  0.36263785    -0.36700
C2579       C  0.38672557  0.07299318  0.36832687     0.15600
C2580       C  0.37226162  0.07519207  0.38080782     0.21500
C2581       C  0.36417392  0.04510310  0.38852666    -0.34800
C2582       C  0.37176643  0.01311630  0.38290709     0.15600
O2583       O  0.39124598  0.97839864  0.36722361    -0.26800
C2584       C  0.37984624  0.95946246  0.37775546     0.05300
C2585       C  0.36741823  0.97967665  0.38784963    -0.31700
O2586       O  0.36783196  0.10775329  0.38473527    -0.23500
C2587       C  0.37960528  0.12675820  0.37467090    -0.03500
C2588       C  0.39162607  0.10649643  0.36407645    -0.18000
H2589       H  0.40572930  0.03952896  0.35297591     0.20000
H2590       H  0.35291847  0.04656239  0.39842746     0.18400
H2591       H  0.35673332  0.97098971  0.39735004     0.18300
H2592       H  0.40266577  0.11518311  0.35499647     0.14200
C2593       C  0.23785648  0.34158773  0.36554696     0.29700
C2594       C  0.25354486  0.33853730  0.35428485    -0.36700
C2595       C  0.27061766  0.34157174  0.36341993     0.15600
C2596       C  0.27228117  0.34740667  0.38236485     0.21500
C2597       C  0.25649472  0.35030161  0.39371866    -0.34800
C2598       C  0.23931523  0.34687168  0.38456447     0.15600
O2599       O  0.22058496  0.34081200  0.35966170    -0.26800
C2600       C  0.21072083  0.34514298  0.37509354     0.05300
C2601       C  0.22159900  0.34880300  0.39109343    -0.31700
O2602       O  0.28975776  0.34786017  0.38797209    -0.23500
C2603       C  0.29928647  0.34203640  0.37237900    -0.03500
C2604       C  0.28805038  0.33815110  0.35671187    -0.18000
H2605       H  0.25250435  0.33398534  0.33940484     0.20000
H2606       H  0.25753020  0.35456142  0.40862271     0.18400
H2607       H  0.21711807  0.35393671  0.40523038     0.18300
H2608       H  0.29213012  0.33208540  0.34255381     0.14200
C2609       C  0.48837280  0.22725809  0.37536814     0.29700
C2610       C  0.50455486  0.22542977  0.36458506    -0.36700
C2611       C  0.52090791  0.21671475  0.37423492     0.15600
C2612       C  0.52129916  0.20983593  0.39316371     0.21500
C2613       C  0.50516933  0.21242070  0.40402138    -0.34800
C2614       C  0.48884423  0.22150579  0.39440283     0.15600
O2615       O  0.47157411  0.23473246  0.36918204    -0.26800
C2616       C  0.46115376  0.23420868  0.38447892     0.05300
C2617       C  0.47117916  0.22633171  0.40060814    -0.31700
O2618       O  0.53786879  0.19990608  0.39907792    -0.23500
C2619       C  0.54832235  0.20086556  0.38377942    -0.03500
C2620       C  0.53849299  0.21146856  0.36794969    -0.18000
H2621       H  0.50437272  0.23012036  0.34966890     0.20000
H2622       H  0.50529098  0.20726995  0.41889328     0.18400
H2623       H  0.46617027  0.22459088  0.41480910     0.18300
H2624       H  0.54340476  0.21341137  0.35372002     0.14200
C2625       C  0.27171240  0.58970805  0.12102253     0.29700
C2626       C  0.25564074  0.58790104  0.10983498    -0.36700
C2627       C  0.23864599  0.58753891  0.11942212     0.15600
C2628       C  0.23762298  0.58841550  0.13866150     0.21500
C2629       C  0.25359041  0.59051488  0.14977746    -0.34800
C2630       C  0.27046887  0.59122248  0.14022903     0.15600
O2631       O  0.28907161  0.59121882  0.11515135    -0.26800
C2632       C  0.29896381  0.59394080  0.13086279     0.05300
C2633       C  0.28805408  0.59406199  0.14682418    -0.31700
O2634       O  0.22048963  0.58648791  0.14481825    -0.23500
C2635       C  0.21023577  0.58484038  0.12936756    -0.03500
C2636       C  0.22077202  0.58553263  0.11309783    -0.18000
H2637       H  0.25632615  0.58697573  0.09474851     0.20000
H2638       H  0.25290035  0.59151992  0.16486553     0.18400
H2639       H  0.29245957  0.59668353  0.16122520     0.18300
H2640       H  0.21599761  0.58349439  0.09879278     0.14200
C2641       C  0.52028210  0.73137550  0.12951835     0.29700
C2642       C  0.50403087  0.73027374  0.14022778    -0.36700
C2643       C  0.48764178  0.72219557  0.13051550     0.15600
C2644       C  0.48727777  0.71525322  0.11161328     0.21500
C2645       C  0.50346137  0.71715806  0.10083827    -0.34800
C2646       C  0.51981126  0.72556870  0.11050761     0.15600
O2647       O  0.53716324  0.73803343  0.13573226    -0.26800
C2648       C  0.54760665  0.73683697  0.12045759     0.05300
C2649       C  0.53752529  0.72943401  0.10434899    -0.31700
O2650       O  0.47070102  0.70561738  0.10567262    -0.23500
C2651       C  0.46021615  0.70685442  0.12092116    -0.03500
C2652       C  0.47001460  0.71736989  0.13674213    -0.18000
H2653       H  0.50418893  0.73491058  0.15513242     0.20000
H2654       H  0.50337178  0.71186267  0.08599985     0.18400
H2655       H  0.54254258  0.72740011  0.09016888     0.18300
H2656       H  0.46508118  0.71924726  0.15096031     0.14200
C2657       C  0.38625868  0.71963961  0.26979071     0.29700
C2658       C  0.39729507  0.71096621  0.25441001    -0.36700
C2659       C  0.38780869  0.70520553  0.23757999     0.15600
C2660       C  0.36875913  0.70717557  0.23609395     0.21500
C2661       C  0.35774765  0.71609488  0.25140428    -0.34800
C2662       C  0.36725350  0.72243445  0.26813100     0.15600
O2663       O  0.39221309  0.72683407  0.28678215    -0.26800
C2664       C  0.37682956  0.73466958  0.29603017     0.05300
C2665       C  0.36089334  0.73245313  0.28511512    -0.31700
O2666       O  0.36275311  0.70033027  0.21912848    -0.23500
C2667       C  0.37815761  0.69447767  0.20955308    -0.03500
C2668       C  0.39419788  0.69718165  0.22026117    -0.18000
H2669       H  0.41222492  0.70920901  0.25544701     0.20000
H2670       H  0.34283408  0.71825089  0.25030240     0.18400
H2671       H  0.34671910  0.73770337  0.28910859     0.18300
H2672       H  0.40840224  0.69327358  0.21595692     0.14200
C2673       C  0.38569109  0.92284227  0.13505845     0.29700
C2674       C  0.39303919  0.89323156  0.14405238    -0.36700
C2675       C  0.38651346  0.86086977  0.13771109     0.15600
C2676       C  0.37369734  0.85798300  0.12344870     0.21500
C2677       C  0.36646527  0.88758512  0.11435161    -0.34800
C2678       C  0.37293777  0.91994590  0.12073863     0.15600
O2679       O  0.38954962  0.95557240  0.13906084    -0.26800
C2680       C  0.37914978  0.97398710  0.12718871     0.05300
C2681       C  0.36854649  0.95320232  0.11536180    -0.31700
O2682       O  0.36960373  0.82526536  0.11964968    -0.23500
C2683       C  0.37993553  0.80682254  0.13157102    -0.03500
C2684       C  0.39074158  0.82760624  0.14322304    -0.18000
H2685       H  0.40305597  0.89531814  0.15528250     0.20000
H2686       H  0.35642894  0.88550483  0.10313900     0.18400
H2687       H  0.35891227  0.96138866  0.10457777     0.18300
H2688       H  0.40045631  0.81941289  0.15393128     0.14200
C2689       C  0.38684520  0.42265561  0.13454045     0.29700
C2690       C  0.39493201  0.39257485  0.14234470    -0.36700
C2691       C  0.38786865  0.36057311  0.13605620     0.15600
C2692       C  0.37386299  0.35840258  0.12293575     0.21500
C2693       C  0.36580554  0.38848997  0.11509652    -0.34800
C2694       C  0.37282065  0.42048922  0.12143888     0.15600
O2695       O  0.39125503  0.45517926  0.13850273    -0.26800
C2696       C  0.37991665  0.47416514  0.12782960     0.05300
C2697       C  0.36810919  0.45398099  0.11689554    -0.31700
O2698       O  0.36940037  0.32586689  0.11903870    -0.23500
C2699       C  0.38065193  0.30685961  0.12980697    -0.03500
C2700       C  0.39247147  0.32707381  0.14071962    -0.18000
H2701       H  0.40592439  0.39404163  0.15263714     0.20000
H2702       H  0.35480748  0.38703378  0.10480942     0.18400
H2703       H  0.35762949  0.46271259  0.10707898     0.18300
H2704       H  0.40295320  0.31836039  0.15053673     0.14200
C2705       C  0.27129649  0.08763728  0.13874110     0.29700
C2706       C  0.25560874  0.08669617  0.15018837    -0.36700
C2707       C  0.23846670  0.08618168  0.14097282     0.15600
C2708       C  0.23675596  0.08697064  0.12177466     0.21500
C2709       C  0.25253694  0.08767938  0.11026887    -0.34800
C2710       C  0.26978828  0.08769403  0.11952027     0.15600
O2711       O  0.28858451  0.08963521  0.14454585    -0.26800
C2712       C  0.29846427  0.09052883  0.12890671     0.05300
C2713       C  0.28751654  0.08912624  0.11283760    -0.31700
O2714       O  0.21925207  0.08593493  0.11622317    -0.23500
C2715       C  0.20971654  0.08420439  0.13211594    -0.03500
C2716       C  0.22100426  0.08423308  0.14790834    -0.18000
H2717       H  0.25670061  0.08646215  0.16527168     0.20000
H2718       H  0.25144561  0.08810883  0.09519061     0.18400
H2719       H  0.29190972  0.09087818  0.09843122     0.18300
H2720       H  0.21691574  0.08236558  0.16240869     0.14200
C2721       C  0.52108777  0.22146832  0.13264741     0.29700
C2722       C  0.50527021  0.21612489  0.14367452    -0.36700
C2723       C  0.48866145  0.20996157  0.13393146     0.15600
C2724       C  0.48777128  0.20830354  0.11469321     0.21500
C2725       C  0.50353949  0.21388115  0.10368788    -0.34800
C2726       C  0.52003560  0.22083400  0.11339897     0.15600
O2727       O  0.53793285  0.22875967  0.13875518    -0.26800
C2728       C  0.54771936  0.23329012  0.12319674     0.05300
C2729       C  0.53727150  0.22879634  0.10702031    -0.31700
O2730       O  0.47092900  0.20145539  0.10849174    -0.23500
C2731       C  0.46077548  0.19934967  0.12392835    -0.03500
C2732       C  0.47107585  0.20449070  0.14018280    -0.18000
H2733       H  0.50582154  0.21719152  0.15877131     0.20000
H2734       H  0.50294123  0.21326229  0.08858599     0.18400
H2735       H  0.54170591  0.23147353  0.09266414     0.18300
H2736       H  0.46636481  0.20340693  0.15450665     0.14200
C2737       C  0.38444138  0.20549832  0.23593720     0.29700
C2738       C  0.39563433  0.21060551  0.25180733    -0.36700
C2739       C  0.38626232  0.21736973  0.26857067     0.15600
C2740       C  0.36720493  0.21933628  0.26958412     0.21500
C2741       C  0.35602260  0.21355415  0.25381062    -0.34800
C2742       C  0.36537541  0.20651047  0.23711116     0.15600
O2743       O  0.39023942  0.19921816  0.21880308    -0.26800
C2744       C  0.37466944  0.19580069  0.20892827     0.05300
C2745       C  0.35878037  0.19994036  0.21962202    -0.31700
O2746       O  0.36137044  0.22797799  0.28638243    -0.23500
C2747       C  0.37686246  0.23119839  0.29637897    -0.03500
C2748       C  0.39278712  0.22460421  0.28605317    -0.18000
H2749       H  0.41059743  0.20974033  0.25109480     0.20000
H2750       H  0.34106690  0.21491124  0.25446220     0.18400
H2751       H  0.34447108  0.19832314  0.21513348     0.18300
H2752       H  0.40707744  0.22629389  0.29059414     0.14200
C2753       C  0.12945724  0.81672426  0.48621184     0.29700
C2754       C  0.14042821  0.81381967  0.50243731    -0.36700
C2755       C  0.13160169  0.82172960  0.51937885     0.15600
C2756       C  0.11320679  0.83142294  0.52023802     0.21500
C2757       C  0.10214864  0.83332656  0.50416299    -0.34800
C2758       C  0.11098888  0.82579948  0.48728668     0.15600
O2759       O  0.13544223  0.81574836  0.46878296    -0.26800
C2760       C  0.12057515  0.82416369  0.45862069     0.05300
C2761       C  0.10495201  0.83027770  0.46945963    -0.31700
O2762       O  0.10819613  0.84119818  0.53707659    -0.23500
C2763       C  0.12349400  0.83760329  0.54728606    -0.03500
C2764       C  0.13852285  0.82532162  0.53706220    -0.18000
H2765       H  0.15508162  0.80802048  0.50178349     0.20000
H2766       H  0.08792601  0.84222280  0.50466058     0.18400
H2767       H  0.09155832  0.83996000  0.46495708     0.18300
H2768       H  0.15265591  0.82148061  0.54174488     0.14200
C2769       C  0.11406873  0.32644999  0.48479488     0.29700
C2770       C  0.10338313  0.33256223  0.50068994    -0.36700
C2771       C  0.11286973  0.33178727  0.51773762     0.15600
C2772       C  0.13158248  0.32485660  0.51921167     0.21500
C2773       C  0.14227196  0.31804763  0.50324732    -0.34800
C2774       C  0.13278752  0.31934643  0.48606154     0.15600
O2775       O  0.10839181  0.33068650  0.46747328    -0.26800
C2776       C  0.12356925  0.32610345  0.45735958     0.05300
C2777       C  0.13920383  0.31867755  0.46814805    -0.31700
O2778       O  0.13781205  0.32859708  0.53648150    -0.23500
C2779       C  0.12286179  0.33819899  0.54604819    -0.03500
C2780       C  0.10699162  0.34046372  0.53507101    -0.18000
H2781       H  0.08888638  0.33959171  0.49972885     0.20000
H2782       H  0.15709101  0.31401795  0.50407361     0.18400
H2783       H  0.15342102  0.31630122  0.46357977     0.18300
H2784       H  0.09327646  0.34890448  0.53912919     0.14200
C2785       C  0.13144714  0.61255855  0.62123498     0.29700
C2786       C  0.13810317  0.64241060  0.61208745    -0.36700
C2787       C  0.13263157  0.67448046  0.61958677     0.15600
C2788       C  0.12135148  0.67698409  0.63503496     0.21500
C2789       C  0.11460931  0.64706335  0.64417545    -0.34800
C2790       C  0.12009587  0.61490989  0.63664450     0.15600
O2791       O  0.13498271  0.58006159  0.61656388    -0.26800
C2792       C  0.12573081  0.56117763  0.62903868     0.05300
C2793       C  0.11617846  0.58142354  0.64193585    -0.31700
O2794       O  0.11817625  0.70964321  0.63977799    -0.23500
C2795       C  0.12759888  0.72826061  0.62725711    -0.03500
C2796       C  0.13681228  0.70776021  0.61429066    -0.18000
H2797       H  0.14700524  0.64071782  0.60000162     0.20000
H2798       H  0.10578027  0.64875234  0.65631934     0.18400
H2799       H  0.10770550  0.57274740  0.65349261     0.18300
H2800       H  0.14536726  0.71614732  0.60273814     0.14200
C2801       C  0.13443878  0.17623914  0.62006776     0.29700
C2802       C  0.14194194  0.14518923  0.61306418    -0.36700
C2803       C  0.13422071  0.11409151  0.61995163     0.15600
C2804       C  0.12005842  0.11323406  0.63283997     0.21500
C2805       C  0.11246345  0.14431480  0.63978414    -0.34800
C2806       C  0.12023943  0.17545176  0.63292207     0.15600
O2807       O  0.13972678  0.20838618  0.61578128    -0.26800
C2808       C  0.12875769  0.22844288  0.62609443     0.05300
C2809       C  0.11638785  0.20925284  0.63696778    -0.31700
O2810       O  0.11529687  0.08099803  0.63757968    -0.23500
C2811       C  0.12659837  0.06107358  0.62751878    -0.03500
C2812       C  0.13857502  0.08037485  0.61632205    -0.18000
H2813       H  0.15314167  0.14522184  0.60306725     0.20000
H2814       H  0.10141336  0.14427314  0.64995342     0.18400
H2815       H  0.10603983  0.21890872  0.64655979     0.18300
H2816       H  0.14918771  0.07084912  0.60699261     0.14200
C2817       C  0.11268655  0.59563245  0.98507548     0.29700
C2818       C  0.10194604  0.59186407  0.00117828    -0.36700
C2819       C  0.11094385  0.59856125  0.01814466     0.15600
C2820       C  0.12929080  0.60842755  0.01933771     0.21500
C2821       C  0.13997616  0.61301482  0.00310743    -0.34800
C2822       C  0.13095437  0.60613977  0.98604262     0.15600
O2823       O  0.10751455  0.58705835  0.96804070    -0.26800
C2824       C  0.12258278  0.59228709  0.95780936     0.05300
C2825       C  0.13758855  0.60447446  0.96822663    -0.31700
O2826       O  0.13536336  0.60923817  0.03681451    -0.23500
C2827       C  0.12063291  0.59994361  0.04685707    -0.03500
C2828       C  0.10507765  0.59330283  0.03589980    -0.18000
H2829       H  0.08781419  0.58249240  0.00058579     0.20000
H2830       H  0.15453624  0.61961601  0.00377976     0.18400
H2831       H  0.15160150  0.60925101  0.96355377     0.18300
H2832       H  0.09175474  0.58333217  0.04029885     0.14200
C2833       C  0.12838735  0.47018846  0.76872432     0.29700
C2834       C  0.11737073  0.46760269  0.75264708    -0.36700
C2835       C  0.12686908  0.46499252  0.73571062     0.15600
C2836       C  0.14594289  0.46415911  0.73460937     0.21500
C2837       C  0.15702793  0.46750981  0.75070149    -0.34800
C2838       C  0.14747409  0.47070109  0.76767849     0.15600
O2839       O  0.12228398  0.47356420  0.78593704    -0.26800
C2840       C  0.13762086  0.47663006  0.79612940     0.05300
C2841       C  0.15373991  0.47516715  0.78550794    -0.31700
O2842       O  0.15177715  0.45852129  0.71741796    -0.23500
C2843       C  0.13620013  0.45647489  0.70741771    -0.03500
C2844       C  0.12032686  0.46071140  0.71805473    -0.18000
H2845       H  0.10239961  0.46748079  0.75330726     0.20000
H2846       H  0.17200277  0.46726981  0.75006041     0.18400
H2847       H  0.16793517  0.47796361  0.79019497     0.18300
H2848       H  0.10602856  0.45853932  0.71359929     0.14200
C2849       C  0.11390821  0.10082081  0.01958499     0.29700
C2850       C  0.10332662  0.09513437  0.00342054    -0.36700
C2851       C  0.11269570  0.09801406  0.98639731     0.15600
C2852       C  0.13125294  0.10621650  0.98519667     0.21500
C2853       C  0.14183058  0.11261411  0.00145270    -0.34800
C2854       C  0.13243149  0.10946218  0.01861704     0.15600
O2855       O  0.10827498  0.09546185  0.03683882    -0.26800
C2856       C  0.12325977  0.10091212  0.04731643     0.05300
C2857       C  0.13874150  0.10999806  0.03672025    -0.31700
O2858       O  0.13749988  0.10406623  0.96784984    -0.23500
C2859       C  0.12269830  0.09435196  0.95789937    -0.03500
C2860       C  0.10690611  0.09047360  0.96877564    -0.18000
H2861       H  0.08896933  0.08713383  0.00411687     0.20000
H2862       H  0.15653767  0.11789893  0.00081286     0.18400
H2863       H  0.15283529  0.11373369  0.04151990     0.18300
H2864       H  0.09335737  0.08134729  0.96447630     0.14200
C2865       C  0.13612236  0.81713100  0.88401872     0.29700
C2866       C  0.14396137  0.78731614  0.89236176    -0.36700
C2867       C  0.13834290  0.75513945  0.88497943     0.15600
C2868       C  0.12592188  0.75261319  0.87034375     0.21500
C2869       C  0.11816920  0.78241747  0.86192181    -0.34800
C2870       C  0.12370747  0.81457733  0.86937785     0.15600
O2871       O  0.13935606  0.84974323  0.88880100    -0.26800
C2872       C  0.12887804  0.86840227  0.87711356     0.05300
C2873       C  0.11878616  0.84790326  0.86470205    -0.31700
O2874       O  0.12226143  0.72000850  0.86592831    -0.23500
C2875       C  0.13245441  0.70130511  0.87784966    -0.03500
C2876       C  0.14281095  0.72176042  0.89004632    -0.18000
H2877       H  0.15364027  0.78909888  0.90390292     0.20000
H2878       H  0.10836396  0.78061701  0.85048769     0.18400
H2879       H  0.10936540  0.85633112  0.85377929     0.18300
H2880       H  0.15200222  0.71329283  0.90115530     0.14200
C2881       C  0.12309945  0.25249678  0.87038583     0.29700
C2882       C  0.11461648  0.28204374  0.86239609    -0.36700
C2883       C  0.12123984  0.31450352  0.86849220     0.15600
C2884       C  0.13520620  0.31751339  0.88160129     0.21500
C2885       C  0.14369930  0.28798203  0.88958143    -0.34800
C2886       C  0.13710403  0.25553417  0.88345285     0.15600
O2887       O  0.11905047  0.21971610  0.86668077    -0.26800
C2888       C  0.13058019  0.20139997  0.87748624     0.05300
C2889       C  0.14218163  0.22231727  0.88826110    -0.31700
O2890       O  0.13917001  0.35026543  0.88540970    -0.23500
C2891       C  0.12766668  0.36861910  0.87459403    -0.03500
C2892       C  0.11615625  0.34775129  0.86370073    -0.18000
H2893       H  0.10362075  0.27984273  0.85214747     0.20000
H2894       H  0.15466654  0.29018683  0.89986294     0.18400
H2895       H  0.15275064  0.21424734  0.89814130     0.18300
H2896       H  0.10555508  0.35586099  0.85386708     0.14200
C2897       C  0.14595053  0.95842407  0.73622455     0.29700
C2898       C  0.15722179  0.96200147  0.75212389    -0.36700
C2899       C  0.14791386  0.96441933  0.76922878     0.15600
C2900       C  0.12886449  0.96279218  0.77059724     0.21500
C2901       C  0.11761590  0.95948065  0.75470953    -0.34800
C2902       C  0.12689024  0.95781715  0.73760310     0.15600
O2903       O  0.15166746  0.95481264  0.71887181    -0.26800
C2904       C  0.13604307  0.95259331  0.70901131     0.05300
C2905       C  0.12020249  0.95451327  0.71992413    -0.31700
O2906       O  0.12301624  0.96691748  0.78783659    -0.23500
C2907       C  0.13847710  0.97162369  0.79765404    -0.03500
C2908       C  0.15442662  0.97027061  0.78682454    -0.18000
H2909       H  0.17216709  0.96316570  0.75120230     0.20000
H2910       H  0.10265977  0.95882390  0.75560427     0.18400
H2911       H  0.10589455  0.95197319  0.71555373     0.18300
H2912       H  0.16862552  0.97455816  0.79115726     0.14200
C2913       C  0.89657843  0.82870287  0.02077343     0.29700
C2914       C  0.90695189  0.83568971  0.00474474    -0.36700
C2915       C  0.89766630  0.83168913  0.98771527     0.15600
C2916       C  0.87942872  0.82116587  0.98638228     0.21500
C2917       C  0.86909215  0.81353302  0.00250913    -0.34800
C2918       C  0.87836797  0.81787828  0.01967167     0.15600
O2919       O  0.90191950  0.83517666  0.03798643    -0.26800
C2920       C  0.88704055  0.82837081  0.04822095     0.05300
C2921       C  0.87195667  0.81713509  0.03760821    -0.31700
O2922       O  0.87310567  0.82244782  0.96901272    -0.23500
C2923       C  0.88753484  0.83396224  0.95921842    -0.03500
C2924       C  0.90315844  0.83995632  0.97018221    -0.18000
H2925       H  0.92098159  0.84555549  0.00554011     0.20000
H2926       H  0.85458251  0.80658132  0.00176906     0.18400
H2927       H  0.85794595  0.81217947  0.04223648     0.18300
H2928       H  0.91636799  0.85073575  0.96596966     0.14200
C2929       C  0.98861452  0.95834362  0.87146511     0.29700
C2930       C  0.00402458  0.96531464  0.86009400    -0.36700
C2931       C  0.02103403  0.96960063  0.86943138     0.15600
C2932       C  0.02264457  0.96772211  0.88862997     0.21500
C2933       C  0.00733907  0.96033351  0.89993476    -0.34800
C2934       C  0.99044083  0.95561308  0.89061095     0.15600
O2935       O  0.97141681  0.95301984  0.86577015    -0.26800
C2936       C  0.96219893  0.94647471  0.88148221     0.05300
C2937       C  0.97336711  0.94769955  0.89734580    -0.31700
O2938       O  0.03960430  0.97398800  0.89455078    -0.23500
C2939       C  0.04913147  0.97945658  0.87897008    -0.03500
C2940       C  0.03834333  0.97684480  0.86285431    -0.18000
H2941       H  0.00283837  0.96722954  0.84505103     0.20000
H2942       H  0.00852483  0.95847757  0.91498056     0.18400
H2943       H  0.96947590  0.94310904  0.91173283     0.18300
H2944       H  0.04252270  0.98088254  0.84850583     0.14200
C2945       C  0.89648088  0.33000003  0.01970386     0.29700
C2946       C  0.90708937  0.33534200  0.00364577    -0.36700
C2947       C  0.89750153  0.33373640  0.98666708     0.15600
C2948       C  0.87876337  0.32690766  0.98543954     0.21500
C2949       C  0.86817003  0.32090588  0.00154337    -0.34800
C2950       C  0.87776154  0.32283481  0.01862317     0.15600
O2951       O  0.90221432  0.33495306  0.03695384    -0.26800
C2952       C  0.88705907  0.33071601  0.04717145     0.05300
C2953       C  0.87142193  0.32276782  0.03653840    -0.31700
O2954       O  0.87241599  0.32967997  0.96817347    -0.23500
C2955       C  0.88731830  0.33843893  0.95833181    -0.03500
C2956       C  0.90329163  0.34120836  0.96912270    -0.18000
H2957       H  0.92160415  0.34228386  0.00439649     0.20000
H2958       H  0.85334643  0.31688364  0.00086077     0.18400
H2959       H  0.85722057  0.32047371  0.04117260     0.18300
H2960       H  0.91699842  0.34923962  0.96478687     0.14200
C2961       C  0.88326582  0.67398674  0.86767659     0.29700
C2962       C  0.89172132  0.64465574  0.85959022    -0.36700
C2963       C  0.88536683  0.61202551  0.86579402     0.15600
C2964       C  0.87156592  0.60869642  0.87895324     0.21500
C2965       C  0.86301331  0.63798939  0.88690315    -0.34800
C2966       C  0.86944114  0.67058901  0.88080091     0.15600
O2967       O  0.88760733  0.70684956  0.86449237    -0.26800
C2968       C  0.87648055  0.72484137  0.87572214     0.05300
C2969       C  0.86477730  0.70363244  0.88618134    -0.31700
O2970       O  0.86806038  0.57590526  0.88314067    -0.23500
C2971       C  0.87972040  0.55781727  0.87256701    -0.03500
C2972       C  0.89086821  0.57889447  0.86141007    -0.18000
H2973       H  0.90271897  0.64713938  0.84944723     0.20000
H2974       H  0.85233077  0.63549059  0.89737984     0.18400
H2975       H  0.85464372  0.71136364  0.89647107     0.18300
H2976       H  0.90154813  0.57100457  0.85173030     0.14200
C2977       C  0.88851607  0.17413442  0.87343371     0.29700
C2978       C  0.89545383  0.14443137  0.86438298    -0.36700
C2979       C  0.88976866  0.11210655  0.87159773     0.15600
C2980       C  0.87813008  0.10927813  0.88675869     0.21500
C2981       C  0.87128057  0.13902934  0.89590935    -0.34800
C2982       C  0.87686584  0.17139956  0.88859490     0.15600
O2983       O  0.89163905  0.20679308  0.86859942    -0.26800
C2984       C  0.88180350  0.22539410  0.88070852     0.05300
C2985       C  0.87234988  0.20477294  0.89357586    -0.31700
O2986       O  0.87430792  0.07651447  0.89093487    -0.23500
C2987       C  0.88362289  0.05803589  0.87832045    -0.03500
C2988       C  0.89352703  0.07884186  0.86591605    -0.18000
H2989       H  0.90444811  0.14642188  0.85237325     0.20000
H2990       H  0.86202637  0.13705705  0.90771785     0.18400
H2991       H  0.86336346  0.21312362  0.90477148     0.18300
H2992       H  0.90206375  0.07067336  0.85433257     0.14200
C2993       C  0.02080409  0.47468205  0.88754110     0.29700
C2994       C  0.00482313  0.47293617  0.89853156    -0.36700
C2995       C  0.98837409  0.46481119  0.88909109     0.15600
C2996       C  0.98759663  0.45913680  0.87007618     0.21500
C2997       C  0.00367925  0.46040953  0.85908269    -0.34800
C2998       C  0.02023340  0.46817790  0.86859441     0.15600
O2999       O  0.03751209  0.48288844  0.89349062    -0.26800
C3000       C  0.04792532  0.48130242  0.87824459     0.05300
C3001       C  0.03795864  0.47198183  0.86231251    -0.31700
O3002       O  0.97068943  0.45159925  0.86425280    -0.23500
C3003       C  0.96062624  0.45207537  0.87980261    -0.03500
C3004       C  0.97091214  0.46014258  0.89565768    -0.18000
H3005       H  0.00519451  0.47761964  0.91342852     0.20000
H3006       H  0.00331553  0.45560850  0.84419734     0.18400
H3007       H  0.04292856  0.46955340  0.84813310     0.18300
H3008       H  0.96624108  0.46162919  0.90998110     0.14200
C3009       C  0.87657647  0.60820067  0.48475324     0.29700
C3010       C  0.86546470  0.61119172  0.50077086    -0.36700
C3011       C  0.87440136  0.60515689  0.51797398     0.15600
C3012       C  0.89297095  0.59683525  0.51925134     0.21500
C3013       C  0.90409906  0.59450475  0.50335310    -0.34800
C3014       C  0.89519807  0.60047046  0.48624327     0.15600
O3015       O  0.87077299  0.60854336  0.46720314    -0.26800
C3016       C  0.88593247  0.60110244  0.45740870     0.05300
C3017       C  0.90152014  0.59616947  0.46858730    -0.31700
O3018       O  0.89816989  0.58906865  0.53639873    -0.23500
C3019       C  0.88281237  0.59265323  0.54638263    -0.03500
C3020       C  0.86756019  0.60283262  0.53569295    -0.18000
H3021       H  0.85072736  0.61610673  0.49983828     0.20000
H3022       H  0.91851121  0.58683389  0.50420265     0.18400
H3023       H  0.91518641  0.58766820  0.46440040     0.18300
H3024       H  0.85335912  0.60606799  0.54015252     0.14200
C3025       C  0.98599317  0.47063507  0.63384081     0.29700
C3026       C  0.00193864  0.46535701  0.64492250    -0.36700
C3027       C  0.01845243  0.45816789  0.63524559     0.15600
C3028       C  0.01911680  0.45575976  0.61603256     0.21500
C3029       C  0.00325915  0.46124209  0.60500108    -0.34800
C3030       C  0.98688126  0.46895914  0.61462058     0.15600
O3031       O  0.96912009  0.47811104  0.63982528    -0.26800
C3032       C  0.95915782  0.48162536  0.62418469     0.05300
C3033       C  0.96955481  0.47630435  0.60812119    -0.31700
O3034       O  0.03585114  0.44838186  0.60982662    -0.23500
C3035       C  0.04623428  0.44645029  0.62520364    -0.03500
C3036       C  0.03614085  0.45238329  0.64146999    -0.18000
H3037       H  0.00153287  0.46701334  0.66000269     0.20000
H3038       H  0.00369305  0.45984045  0.58991431     0.18400
H3039       H  0.96497182  0.47763935  0.59372039     0.18300
H3040       H  0.04107886  0.45201877  0.65576665     0.14200
C3041       C  0.88076609  0.46625449  0.73452794     0.29700
C3042       C  0.89158941  0.46691926  0.75082685    -0.36700
C3043       C  0.88224180  0.45978559  0.76750959     0.15600
C3044       C  0.86362085  0.45171919  0.76807760     0.21500
C3045       C  0.85276101  0.45127822  0.75178131    -0.34800
C3046       C  0.86202659  0.45919490  0.73512756     0.15600
O3047       O  0.88650926  0.47373022  0.71755456    -0.26800
C3048       C  0.87123143  0.47190760  0.70716802     0.05300
C3049       C  0.85554123  0.46303774  0.71733813    -0.31700
O3050       O  0.85789928  0.44456941  0.78511735    -0.23500
C3051       C  0.87298597  0.44864298  0.79562367    -0.03500
C3052       C  0.88853016  0.45830360  0.78543154    -0.18000
H3053       H  0.90621831  0.47305032  0.75054172     0.20000
H3054       H  0.83809100  0.44552615  0.75209623     0.18400
H3055       H  0.84139720  0.46074682  0.71242201     0.18300
H3056       H  0.90256098  0.46214335  0.79040710     0.14200
C3057       C  0.88078859  0.10692676  0.48478727     0.29700
C3058       C  0.87013465  0.11217345  0.50092167    -0.36700
C3059       C  0.87914138  0.10567189  0.51802617     0.15600
C3060       C  0.89736030  0.09483973  0.51910697     0.21500
C3061       C  0.90808378  0.09036588  0.50306974    -0.34800
C3062       C  0.89909951  0.09675725  0.48606292     0.15600
O3063       O  0.87466432  0.10722971  0.46736537    -0.26800
C3064       C  0.88931385  0.09727993  0.45746770     0.05300
C3065       C  0.90489625  0.09075248  0.46840012    -0.31700
O3066       O  0.90247465  0.08666889  0.53622742    -0.23500
C3067       C  0.88743061  0.09256740  0.54637974    -0.03500
C3068       C  0.87248867  0.10469767  0.53583297    -0.18000
H3069       H  0.85559868  0.11896623  0.50016756     0.20000
H3070       H  0.92216361  0.08069942  0.50375953     0.18400
H3071       H  0.91814308  0.08032546  0.46408296     0.18300
H3072       H  0.85848451  0.10977330  0.54042780     0.14200
C3073       C  0.88337489  0.75202126  0.63119487     0.29700
C3074       C  0.89241390  0.78154087  0.63837007    -0.36700
C3075       C  0.88510686  0.81395726  0.63297022     0.15600
C3076       C  0.87001719  0.81708747  0.62119216     0.21500
C3077       C  0.86104655  0.78750205  0.61388340    -0.34800
C3078       C  0.86829928  0.75500841  0.61938448     0.15600
O3079       O  0.88768471  0.71929789  0.63481993    -0.26800
C3080       C  0.87527434  0.70088327  0.62521146     0.05300
C3081       C  0.86283353  0.72170702  0.61527263    -0.31700
O3082       O  0.86542118  0.84995087  0.61812390    -0.23500
C3083       C  0.87766589  0.86811981  0.62812583    -0.03500
C3084       C  0.89029021  0.84706079  0.63763347    -0.18000
H3085       H  0.90420729  0.77935145  0.64768421     0.20000
H3086       H  0.84915249  0.78967958  0.60470138     0.18400
H3087       H  0.85139087  0.71352738  0.60650778     0.18300
H3088       H  0.90163615  0.85499386  0.64659122     0.14200
C3089       C  0.87658699  0.25304471  0.61893887     0.29700
C3090       C  0.86940716  0.28357118  0.61084191    -0.36700
C3091       C  0.87608516  0.31509284  0.61816414     0.15600
C3092       C  0.88898734  0.31675530  0.63242628     0.21500
C3093       C  0.89635871  0.28619341  0.64035959    -0.34800
C3094       C  0.88962131  0.25462076  0.63308211     0.15600
O3095       O  0.87193566  0.22067319  0.61463558    -0.26800
C3096       C  0.88219264  0.20127361  0.62615827     0.05300
C3097       C  0.89345330  0.22104870  0.63789887    -0.31700
O3098       O  0.89265892  0.34918707  0.63756244    -0.23500
C3099       C  0.88190355  0.36840930  0.62641644    -0.03500
C3100       C  0.87142750  0.34852112  0.61402858    -0.18000
H3101       H  0.85909516  0.28283432  0.59983218     0.20000
H3102       H  0.90638393  0.28693922  0.65163264     0.18400
H3103       H  0.90299088  0.21194152  0.64856049     0.18300
H3104       H  0.86150304  0.35745534  0.60368518     0.14200
C3105       C  0.98640220  0.96175967  0.63468958     0.29700
C3106       C  0.00182783  0.95254844  0.64572943    -0.36700
C3107       C  0.01888660  0.95052022  0.63636850     0.15600
C3108       C  0.02052097  0.95644535  0.61741348     0.21500
C3109       C  0.00520969  0.96598479  0.60646837    -0.34800
C3110       C  0.98830095  0.96855082  0.61584952     0.15600
O3111       O  0.96918043  0.96607021  0.64049161    -0.26800
C3112       C  0.96007122  0.97604721  0.62514690     0.05300
C3113       C  0.97131481  0.97805172  0.60945752    -0.31700
O3114       O  0.03758522  0.95235358  0.61138444    -0.23500
C3115       C  0.04717559  0.94428566  0.62668736    -0.03500
C3116       C  0.03630248  0.94290004  0.64270847    -0.18000
H3117       H  0.00064876  0.94764302  0.66057165     0.20000
H3118       H  0.00642281  0.97126913  0.59166232     0.18400
H3119       H  0.96753519  0.98588911  0.59540290     0.18300
H3120       H  0.04055431  0.93649611  0.65682680     0.14200
C3121       C  0.86433305  0.95986615  0.76989143     0.29700
C3122       C  0.85302823  0.96514647  0.75408267    -0.36700
C3123       C  0.86223004  0.96817687  0.73688885     0.15600
C3124       C  0.88122851  0.96573596  0.73533448     0.21500
C3125       C  0.89253515  0.96097808  0.75115911    -0.34800
C3126       C  0.88336280  0.95846817  0.76836658     0.15600
O3127       O  0.85865446  0.95511101  0.78724139    -0.26800
C3128       C  0.87427303  0.95132548  0.79703195     0.05300
C3129       C  0.89007546  0.95334476  0.78599899    -0.31700
O3130       O  0.88695476  0.96962439  0.71796405    -0.23500
C3131       C  0.87145786  0.97496456  0.70821122    -0.03500
C3132       C  0.85563084  0.97441831  0.71928810    -0.18000
H3133       H  0.83810215  0.96674208  0.75511435     0.20000
H3134       H  0.90746412  0.95946446  0.75012980     0.18400
H3135       H  0.90436894  0.94988894  0.79024746     0.18300
H3136       H  0.84141433  0.97888511  0.71504866     0.14200
C3137       C  0.37672599  0.86020533  0.48563460     0.29700
C3138       C  0.36548817  0.86228113  0.50162802    -0.36700
C3139       C  0.37458208  0.85830968  0.51894253     0.15600
C3140       C  0.39343630  0.85286845  0.52036639     0.21500
C3141       C  0.40468281  0.85170961  0.50446982    -0.34800
C3142       C  0.39560522  0.85533630  0.48723128     0.15600
O3143       O  0.37094639  0.85867755  0.46808044    -0.26800
C3144       C  0.38634870  0.85271055  0.45836445     0.05300
C3145       C  0.40208013  0.85069324  0.46960579    -0.31700
O3146       O  0.39879935  0.84564031  0.53757553    -0.23500
C3147       C  0.38325083  0.84670666  0.54746446    -0.03500
C3148       C  0.36773559  0.85483636  0.53662999    -0.18000
H3149       H  0.35058180  0.86469055  0.50061102     0.20000
H3150       H  0.41935619  0.84614907  0.50542381     0.18400
H3151       H  0.41605894  0.84406699  0.46550631     0.18300
H3152       H  0.35338446  0.85548649  0.54092600     0.14200
C3153       C  0.26920973  0.83770743  0.64261012     0.29700
C3154       C  0.25342182  0.83508369  0.65380459    -0.36700
C3155       C  0.23645660  0.83438440  0.64431735     0.15600
C3156       C  0.23506184  0.83608284  0.62510720     0.21500
C3157       C  0.25089323  0.83922094  0.61387620    -0.34800
C3158       C  0.26792399  0.84013159  0.62340514     0.15600
O3159       O  0.28644326  0.83638553  0.64857256    -0.26800
C3160       C  0.29642681  0.83858190  0.63306184     0.05300
C3161       C  0.28566293  0.84121261  0.61693160    -0.31700
O3162       O  0.21770546  0.83617755  0.61928769    -0.23500
C3163       C  0.20791135  0.83461964  0.63499026    -0.03500
C3164       C  0.21888045  0.83342671  0.65098289    -0.18000
H3165       H  0.25432192  0.83338389  0.66887411     0.20000
H3166       H  0.24999350  0.84081242  0.59880313     0.18400
H3167       H  0.29022603  0.84123063  0.60254769     0.18300
H3168       H  0.21451506  0.83384876  0.66542812     0.14200
C3169       C  0.39596722  0.35705564  0.48446297     0.29700
C3170       C  0.40663502  0.35211824  0.50065712    -0.36700
C3171       C  0.39699418  0.35284923  0.51758234     0.15600
C3172       C  0.37813107  0.35831189  0.51861590     0.21500
C3173       C  0.36747600  0.36383705  0.50237998    -0.34800
C3174       C  0.37713251  0.36297842  0.48536904     0.15600
O3175       O  0.40182904  0.35298197  0.46721208    -0.26800
C3176       C  0.38664922  0.35668037  0.45678892     0.05300
C3177       C  0.37085431  0.36326825  0.46733661    -0.31700
O3178       O  0.37176641  0.35463766  0.53580005    -0.23500
C3179       C  0.38677436  0.34667817  0.54583655    -0.03500
C3180       C  0.40284796  0.34541137  0.53520767    -0.18000
H3181       H  0.42127905  0.34618406  0.50003733     0.20000
H3182       H  0.35258129  0.36680737  0.50290815     0.18400
H3183       H  0.35663295  0.36475543  0.46255086     0.18300
H3184       H  0.41666921  0.33808833  0.53966158     0.14200
C3185       C  0.38420086  0.50292388  0.63425312     0.29700
C3186       C  0.39214169  0.53251137  0.64265269    -0.36700
C3187       C  0.38619030  0.56496100  0.63572532     0.15600
C3188       C  0.37329439  0.56794762  0.62153042     0.21500
C3189       C  0.36537718  0.53838252  0.61312235    -0.34800
C3190       C  0.37132244  0.50594111  0.62004661     0.15600
O3191       O  0.38792754  0.47012339  0.63842072    -0.26800
C3192       C  0.37732474  0.45176521  0.62676036     0.05300
C3193       C  0.36663353  0.47270464  0.61499533    -0.31700
O3194       O  0.36953636  0.60070216  0.61734884    -0.23500
C3195       C  0.38013744  0.61906917  0.62898075    -0.03500
C3196       C  0.39087645  0.59821669  0.64074322    -0.18000
H3197       H  0.40225707  0.53035436  0.65379782     0.20000
H3198       H  0.35527061  0.54055562  0.60197085     0.18400
H3199       H  0.35702868  0.46463893  0.60419423     0.18300
H3200       H  0.40052077  0.60635596  0.65149452     0.14200
C3201       C  0.38571781  0.00268229  0.63262283     0.29700
C3202       C  0.39448278  0.03205568  0.64035545    -0.36700
C3203       C  0.38834367  0.06460059  0.63376539     0.15600
C3204       C  0.37460123  0.06782815  0.62041571     0.21500
C3205       C  0.36587306  0.03847032  0.61266131    -0.34800
C3206       C  0.37194139  0.00595107  0.61931408     0.15600
O3207       O  0.38914155  0.96987081  0.63693537    -0.26800
C3208       C  0.37740907  0.95179595  0.62630718     0.05300
C3209       C  0.36633689  0.97287346  0.61500429    -0.31700
O3210       O  0.37087303  0.10061899  0.61636601    -0.23500
C3211       C  0.38231301  0.11877700  0.62725289    -0.03500
C3212       C  0.39356083  0.09775576  0.63842650    -0.18000
H3213       H  0.40523483  0.02967454  0.65086377     0.20000
H3214       H  0.35501778  0.04086205  0.60226320     0.18400
H3215       H  0.35574012  0.96500207  0.60514402     0.18300
H3216       H  0.40393080  0.10571691  0.64850983     0.14200
C3217       C  0.27135570  0.33750384  0.64010993     0.29700
C3218       C  0.25537600  0.33685328  0.65118125    -0.36700
C3219       C  0.23842207  0.33770659  0.64155498     0.15600
C3220       C  0.23719143  0.33866650  0.62232179     0.21500
C3221       C  0.25323097  0.33948569  0.61122375    -0.34800
C3222       C  0.27023890  0.33920658  0.62088281     0.15600
O3223       O  0.28858014  0.33579469  0.64623453    -0.26800
C3224       C  0.29874220  0.33706628  0.63078018     0.05300
C3225       C  0.28806751  0.33933327  0.61455953    -0.31700
O3226       O  0.21985663  0.34056709  0.61633023    -0.23500
C3227       C  0.20987977  0.34102460  0.63195508    -0.03500
C3228       C  0.22075371  0.33932194  0.64804168    -0.18000
H3229       H  0.25611488  0.33594471  0.66627774     0.20000
H3230       H  0.25250294  0.34067105  0.59613417     0.18400
H3231       H  0.29274145  0.33905851  0.60021484     0.18300
H3232       H  0.21629705  0.34061262  0.66244155     0.14200
C3233       C  0.37845560  0.57405827  0.98678124     0.29700
C3234       C  0.36835597  0.56629952  0.00305544    -0.36700
C3235       C  0.37812050  0.56917057  0.02004567     0.15600
C3236       C  0.39650918  0.57897171  0.02086977     0.21500
C3237       C  0.40662306  0.58600788  0.00468665    -0.34800
C3238       C  0.39690919  0.58324963  0.98783089     0.15600
O3239       O  0.37181999  0.57651820  0.96955397    -0.26800
C3240       C  0.38630122  0.58735744  0.95958220     0.05300
C3241       C  0.40223003  0.59172272  0.97027708    -0.31700
O3242       O  0.40232467  0.58450960  0.03803661    -0.23500
C3243       C  0.38757774  0.57801462  0.04851399    -0.03500
C3244       C  0.37213163  0.56788987  0.03810708    -0.18000
H3245       H  0.35371705  0.56028095  0.00258531     0.20000
H3246       H  0.42082861  0.59497856  0.00526248     0.18400
H3247       H  0.41557113  0.60163773  0.96589932     0.18300
H3248       H  0.35815058  0.56352685  0.04298807     0.14200
C3249       C  0.23800114  0.58751697  0.86493355     0.29700
C3250       C  0.25401322  0.58504230  0.85406636    -0.36700
C3251       C  0.27082450  0.58554170  0.86384072     0.15600
C3252       C  0.27189108  0.58794387  0.88304378     0.21500
C3253       C  0.25580733  0.59067972  0.89395586    -0.34800
C3254       C  0.23892237  0.59068070  0.88411473     0.15600
O3255       O  0.22088366  0.58582541  0.85865231    -0.26800
C3256       C  0.21058323  0.58846055  0.87392318     0.05300
C3257       C  0.22104181  0.59186678  0.89021645    -0.31700
O3258       O  0.28916539  0.58960238  0.88911024    -0.23500
C3259       C  0.29920981  0.58845364  0.87355382    -0.03500
C3260       C  0.28850028  0.58586291  0.85744436    -0.18000
H3261       H  0.25339885  0.58296288  0.83900378     0.20000
H3262       H  0.25642226  0.59300371  0.90900733     0.18400
H3263       H  0.21620053  0.59260986  0.90449912     0.18300
H3264       H  0.29306296  0.58622621  0.84306039     0.14200
C3265       C  0.36218430  0.72103585  0.73664187     0.29700
C3266       C  0.35124903  0.71813233  0.75275641    -0.36700
C3267       C  0.36088813  0.71660434  0.76982435     0.15600
C3268       C  0.37994950  0.71846353  0.77098395     0.21500
C3269       C  0.39086338  0.72132410  0.75487347    -0.34800
C3270       C  0.38125841  0.72200326  0.73780140     0.15600
O3271       O  0.35610716  0.72371693  0.71927530    -0.26800
C3272       C  0.37151364  0.72566467  0.70915438     0.05300
C3273       C  0.38756933  0.72449806  0.71995028    -0.31700
O3274       O  0.38613983  0.71460929  0.78823874    -0.23500
C3275       C  0.37087729  0.70985462  0.79829511    -0.03500
C3276       C  0.35474005  0.71104132  0.78756480    -0.18000
H3277       H  0.33629459  0.71665068  0.75202047     0.20000
H3278       H  0.40583224  0.72217148  0.75557841     0.18400
H3279       H  0.40176816  0.72722351  0.71537479     0.18300
H3280       H  0.34063751  0.70655818  0.79204685     0.14200
C3281       C  0.39725050  0.08779533  0.98482032     0.29700
C3282       C  0.40778366  0.09182848  0.00114537    -0.36700
C3283       C  0.39863059  0.08493483  0.01796927     0.15600
C3284       C  0.38030760  0.07484283  0.01881618     0.21500
C3285       C  0.36983546  0.07009060  0.00238313    -0.34800
C3286       C  0.37903551  0.07694523  0.98546507     0.15600
O3287       O  0.40262761  0.09598411  0.96779760    -0.26800
C3288       C  0.38775874  0.09005654  0.95724249     0.05300
C3289       C  0.37267255  0.07789615  0.96746243    -0.31700
O3290       O  0.37405561  0.07368384  0.03617475    -0.23500
C3291       C  0.38864485  0.08295347  0.04651677    -0.03500
C3292       C  0.40430565  0.08990627  0.03585898    -0.18000
H3293       H  0.42190400  0.10129122  0.00080037     0.20000
H3294       H  0.35531542  0.06314452  0.00278408     0.18400
H3295       H  0.35877671  0.07257820  0.96250736     0.18300
H3296       H  0.41757519  0.09981616  0.04053631     0.14200
C3297       C  0.38597776  0.86480919  0.86964136     0.29700
C3298       C  0.39457915  0.89499817  0.86267181    -0.36700
C3299       C  0.38768255  0.92693525  0.86929469     0.15600
C3300       C  0.37325150  0.92916639  0.88182258     0.21500
C3301       C  0.36459205  0.89899884  0.88870970    -0.34800
C3302       C  0.37154420  0.86708454  0.88216336     0.15600
O3303       O  0.39050488  0.83215657  0.86578837    -0.26800
C3304       C  0.37880602  0.81332062  0.87601872     0.05300
C3305       C  0.36668167  0.83373676  0.88641475    -0.31700
O3306       O  0.36908615  0.96175981  0.88615889    -0.23500
C3307       C  0.38102723  0.98067870  0.87627189    -0.03500
C3308       C  0.39292873  0.96032955  0.86555728    -0.18000
H3309       H  0.40596918  0.89368895  0.85292064     0.20000
H3310       H  0.35332861  0.90029074  0.89860980     0.18400
H3311       H  0.35600931  0.82518289  0.89596970     0.18300
H3312       H  0.40382175  0.96895397  0.85627927     0.14200
C3313       C  0.37327424  0.36460406  0.88273515     0.29700
C3314       C  0.36508430  0.39399327  0.89098954    -0.36700
C3315       C  0.37203259  0.42650762  0.88531275     0.15600
C3316       C  0.38604920  0.42973546  0.87237930     0.21500
C3317       C  0.39420643  0.40035842  0.86409461    -0.34800
C3318       C  0.38726785  0.36786108  0.86977746     0.15600
O3319       O  0.36911401  0.33177485  0.88624856    -0.26800
C3320       C  0.38055610  0.31369462  0.87541287     0.05300
C3321       C  0.39216765  0.33477152  0.86477971    -0.31700
O3322       O  0.39038768  0.46253193  0.86903263    -0.23500
C3323       C  0.37903234  0.48067421  0.87993188    -0.03500
C3324       C  0.36727571  0.45963315  0.89043458    -0.18000
H3325       H  0.35411838  0.39163756  0.90117450     0.20000
H3326       H  0.40522267  0.40270395  0.85396373     0.18400
H3327       H  0.40278438  0.32686881  0.85503367     0.18300
H3328       H  0.35673395  0.46757250  0.90025260     0.14200
C3329       C  0.27272770  0.08965919  0.88199583     0.29700
C3330       C  0.25672345  0.09178651  0.89309908    -0.36700
C3331       C  0.23969299  0.09046158  0.88351406     0.15600
C3332       C  0.23856534  0.08669499  0.86438134     0.21500
C3333       C  0.25449257  0.08483930  0.85330618    -0.34800
C3334       C  0.27144770  0.08666680  0.86283302     0.15600
O3335       O  0.29008019  0.09196360  0.88785024    -0.26800
C3336       C  0.29999041  0.09060931  0.87219852     0.05300
C3337       C  0.28907738  0.08742133  0.85623368    -0.31700
O3338       O  0.22136562  0.08443819  0.85833825    -0.23500
C3339       C  0.21120118  0.08737995  0.87370933    -0.03500
C3340       C  0.22185548  0.09129224  0.88984126    -0.18000
H3341       H  0.25749559  0.09461243  0.90811661     0.20000
H3342       H  0.25371022  0.08229861  0.83827095     0.18400
H3343       H  0.29348770  0.08720555  0.84180122     0.18300
H3344       H  0.21717224  0.09264668  0.90416250     0.14200
C3345       C  0.38139596  0.21902942  0.76881042     0.29700
C3346       C  0.39254916  0.22469253  0.75311090    -0.36700
C3347       C  0.38345936  0.22396539  0.73578608     0.15600
C3348       C  0.36460239  0.21893626  0.73402064     0.21500
C3349       C  0.35345526  0.21294880  0.74971361    -0.34800
C3350       C  0.36262062  0.21300312  0.76703173     0.15600
O3351       O  0.38720644  0.21667488  0.78624786    -0.26800
C3352       C  0.37199575  0.20877412  0.79577941     0.05300
C3353       C  0.35626602  0.20620197  0.78453895    -0.31700
O3354       O  0.35890268  0.22104210  0.71652891    -0.23500
C3355       C  0.37438619  0.22667050  0.70696504    -0.03500
C3356       C  0.39009661  0.22856164  0.71820408    -0.18000
H3357       H  0.40732950  0.22887639  0.75430547     0.20000
H3358       H  0.33871180  0.20832937  0.74849598     0.18400
H3359       H  0.34237131  0.19882574  0.78857891     0.18300
H3360       H  0.40417754  0.23434976  0.71408452     0.14200
C3361       C  0.60979705  0.57717910  0.48435094     0.29700
C3362       C  0.59915644  0.58418197  0.50021630    -0.36700
C3363       C  0.60861135  0.58345784  0.51732189     0.15600
C3364       C  0.62725674  0.57595747  0.51883569     0.21500
C3365       C  0.63788123  0.56838951  0.50293071    -0.34800
C3366       C  0.62842860  0.56941708  0.48572338     0.15600
O3367       O  0.60420624  0.58096872  0.46694175    -0.26800
C3368       C  0.61935818  0.57539179  0.45688777     0.05300
C3369       C  0.63486481  0.56775979  0.46782973    -0.31700
O3370       O  0.63354612  0.57979194  0.53607387    -0.23500
C3371       C  0.61871694  0.58993394  0.54565352    -0.03500
C3372       C  0.60282810  0.59252459  0.53467197    -0.18000
H3373       H  0.58472500  0.59164463  0.49918541     0.20000
H3374       H  0.65265541  0.56384898  0.50381267     0.18400
H3375       H  0.64907055  0.56469598  0.46334414     0.18300
H3376       H  0.58921084  0.60155436  0.53870771     0.14200
C3377       C  0.73425924  0.59089855  0.64058002     0.29700
C3378       C  0.75043167  0.59206815  0.65150193    -0.36700
C3379       C  0.76721226  0.58957674  0.64179554     0.15600
C3380       C  0.76809310  0.58643251  0.62262623     0.21500
C3381       C  0.75187247  0.58466866  0.61171559    -0.34800
C3382       C  0.73504238  0.58682509  0.62145600     0.15600
O3383       O  0.71718149  0.59491641  0.64667427    -0.26800
C3384       C  0.70677358  0.59283268  0.63132253     0.05300
C3385       C  0.71714754  0.58755761  0.61520604    -0.31700
O3386       O  0.78531528  0.58437704  0.61651216    -0.23500
C3387       C  0.79558039  0.58602394  0.63199883    -0.03500
C3388       C  0.78501342  0.58911103  0.64812917    -0.18000
H3389       H  0.74996667  0.59510283  0.66651753     0.20000
H3390       H  0.75234039  0.58200029  0.59668183     0.18400
H3391       H  0.71229894  0.58670191  0.60088661     0.18300
H3392       H  0.78977457  0.58986940  0.66248133     0.14200
C3393       C  0.51982543  0.71902114  0.63228947     0.29700
C3394       C  0.50448849  0.72489516  0.64386013    -0.36700
C3395       C  0.48734263  0.72831179  0.63472712     0.15600
C3396       C  0.48555502  0.72672937  0.61553665     0.21500
C3397       C  0.50080659  0.72050822  0.60402396    -0.34800
C3398       C  0.51783639  0.71656071  0.61315139     0.15600
O3399       O  0.53709126  0.71420717  0.63779770    -0.26800
C3400       C  0.54616116  0.70832194  0.62197509     0.05300
C3401       C  0.53487579  0.70939686  0.60621457    -0.31700
O3402       O  0.46842076  0.73165681  0.60984692    -0.23500
C3403       C  0.45898552  0.73583077  0.62556602    -0.03500
C3404       C  0.46998423  0.73389468  0.64154966    -0.18000
H3405       H  0.50581364  0.72641851  0.65889823     0.20000
H3406       H  0.49946411  0.71872302  0.58899395     0.18400
H3407       H  0.53864924  0.70496069  0.59179570     0.18300
H3408       H  0.46587012  0.73714425  0.65596136     0.14200
C3409       C  0.61241653  0.07668228  0.48539767     0.29700
C3410       C  0.60194513  0.08321694  0.50140715    -0.36700
C3411       C  0.61145540  0.08097032  0.51842745     0.15600
C3412       C  0.62999350  0.07241533  0.51973209     0.21500
C3413       C  0.64040225  0.06498959  0.50366796    -0.34800
C3414       C  0.63090787  0.06766491  0.48654163     0.15600
O3415       O  0.60687859  0.08228808  0.46812723    -0.26800
C3416       C  0.62191412  0.07660596  0.45794332     0.05300
C3417       C  0.63729357  0.06708520  0.46862271    -0.31700
O3418       O  0.63654871  0.07611987  0.53687782    -0.23500
C3419       C  0.62200496  0.08728959  0.54657607    -0.03500
C3420       C  0.60601610  0.09042477  0.53580839    -0.18000
H3421       H  0.58768622  0.09184960  0.50056127     0.20000
H3422       H  0.65512434  0.05979501  0.50438125     0.18400
H3423       H  0.65142372  0.06345894  0.46401581     0.18300
H3424       H  0.59266010  0.10063887  0.53992077     0.14200
C3425       C  0.63294074  0.86912260  0.62009065     0.29700
C3426       C  0.64042024  0.89878454  0.61140437    -0.36700
C3427       C  0.63555810  0.93100048  0.61918429     0.15600
C3428       C  0.62394771  0.93383418  0.63436100     0.21500
C3429       C  0.61641173  0.90411527  0.64305945    -0.34800
C3430       C  0.62140545  0.87181286  0.63534123     0.15600
O3431       O  0.63600332  0.83650974  0.61525508    -0.26800
C3432       C  0.62632898  0.81788532  0.62752081     0.05300
C3433       C  0.61690621  0.83844473  0.64038545    -0.31700
O3434       O  0.62099527  0.96659447  0.63909252    -0.23500
C3435       C  0.63092599  0.98497018  0.62686594    -0.03500
C3436       C  0.64034341  0.96417146  0.61417466    -0.18000
H3437       H  0.64948462  0.89684043  0.59945384     0.20000
H3438       H  0.60733823  0.90605587  0.65500696     0.18400
H3439       H  0.60821663  0.83003080  0.65183283     0.18300
H3440       H  0.64907844  0.97232748  0.60271379     0.14200
C3441       C  0.62213647  0.36897808  0.63185911     0.29700
C3442       C  0.61236996  0.39874643  0.63759163    -0.36700
C3443       C  0.61918331  0.43091630  0.63113327     0.15600
C3444       C  0.63446656  0.43370152  0.61970361     0.21500
C3445       C  0.64410731  0.40391038  0.61380572    -0.34800
C3446       C  0.63738352  0.37176614  0.62038441     0.15600
O3447       O  0.61828113  0.33627381  0.63632459    -0.26800
C3448       C  0.63123405  0.31785725  0.62757934     0.05300
C3449       C  0.64349492  0.33863331  0.61746957    -0.31700
O3450       O  0.63882178  0.46646856  0.61590617    -0.23500
C3451       C  0.62620142  0.48493576  0.62509436    -0.03500
C3452       C  0.61356822  0.46413515  0.63470984    -0.18000
H3453       H  0.60044020  0.39698652  0.64664731     0.20000
H3454       H  0.65616874  0.40569519  0.60493053     0.18400
H3455       H  0.65507473  0.33043326  0.60898183     0.18300
H3456       H  0.60214824  0.47235931  0.64340715     0.14200
C3457       C  0.73871008  0.09481872  0.62168646     0.29700
C3458       C  0.75486410  0.09709967  0.61080216    -0.36700
C3459       C  0.77174882  0.09765565  0.62069706     0.15600
C3460       C  0.77263024  0.09548792  0.63992465     0.21500
C3461       C  0.75654884  0.09350533  0.65076223    -0.34800
C3462       C  0.73974032  0.09336513  0.64092028     0.15600
O3463       O  0.72140687  0.09573886  0.61552930    -0.26800
C3464       C  0.71128829  0.09501500  0.63106998     0.05300
C3465       C  0.72201999  0.09347649  0.64723245    -0.31700
O3466       O  0.78976153  0.09380857  0.64627462    -0.23500
C3467       C  0.80013281  0.09546400  0.63098530    -0.03500
C3468       C  0.78966788  0.09821205  0.61463110    -0.18000
H3469       H  0.75430995  0.09850628  0.59571006     0.20000
H3470       H  0.75710800  0.09204932  0.66585416     0.18400
H3471       H  0.71741473  0.09420813  0.66159569     0.18300
H3472       H  0.79452083  0.09789806  0.60034787     0.14200
C3473       C  0.48948699  0.23025123  0.61513420     0.29700
C3474       C  0.50525644  0.22694066  0.60393726    -0.36700
C3475       C  0.52195318  0.22053335  0.61337590     0.15600
C3476       C  0.52318602  0.21817388  0.63257843     0.21500
C3477       C  0.50732483  0.22129378  0.64382425    -0.34800
C3478       C  0.49049838  0.22705254  0.63432060     0.15600
O3479       O  0.47252950  0.23629715  0.60910571    -0.26800
C3480       C  0.46238445  0.23653728  0.62455625     0.05300
C3481       C  0.47279299  0.23074295  0.64071748    -0.31700
O3482       O  0.54024373  0.21147700  0.63836398    -0.23500
C3483       C  0.54996299  0.20911406  0.62262410    -0.03500
C3484       C  0.53925996  0.21450134  0.60667193    -0.18000
H3485       H  0.50451247  0.22882621  0.58886595     0.20000
H3486       H  0.50801681  0.21891413  0.65887835     0.18400
H3487       H  0.46806599  0.23017034  0.65504368     0.18300
H3488       H  0.54356717  0.21348446  0.59221941     0.14200
C3489       C  0.63157690  0.86431421  0.01872748     0.29700
C3490       C  0.64272692  0.86598649  0.00263836    -0.36700
C3491       C  0.63371572  0.85963421  0.98548823     0.15600
C3492       C  0.61500452  0.85255972  0.98433510     0.21500
C3493       C  0.60382193  0.85195143  0.00026838    -0.34800
C3494       C  0.61282199  0.85784213  0.01732597     0.15600
O3495       O  0.63746409  0.86393174  0.03627124    -0.26800
C3496       C  0.62225312  0.85710580  0.04614533     0.05300
C3497       C  0.60652438  0.85354327  0.03502916    -0.31700
O3498       O  0.60971654  0.84361666  0.96738511    -0.23500
C3499       C  0.62514330  0.84514018  0.95733052    -0.03500
C3500       C  0.64055025  0.85524364  0.96783306    -0.18000
H3501       H  0.65756574  0.86964036  0.00353663     0.20000
H3502       H  0.58930475  0.84502213  0.99953582     0.18400
H3503       H  0.59277550  0.84557877  0.03925988     0.18300
H3504       H  0.65482168  0.85701431  0.96336395     0.14200
C3505       C  0.73786871  0.83141508  0.88039115     0.29700
C3506       C  0.75399610  0.82643262  0.89123802    -0.36700
C3507       C  0.77097790  0.82965332  0.88178130     0.15600
C3508       C  0.77195503  0.83763907  0.86300847     0.21500
C3509       C  0.75587435  0.84197935  0.85212979    -0.34800
C3510       C  0.73895713  0.83841862  0.86151745     0.15600
O3511       O  0.72054571  0.82926583  0.88624629    -0.26800
C3512       C  0.71042249  0.83470473  0.87087321     0.05300
C3513       C  0.72118562  0.84030893  0.85507030    -0.31700
O3514       O  0.78913417  0.84206938  0.85725722    -0.23500
C3515       C  0.79946933  0.83644654  0.87244007    -0.03500
C3516       C  0.78889058  0.82826357  0.88811739    -0.18000
H3517       H  0.75335255  0.82072336  0.90603583     0.20000
H3518       H  0.75651351  0.84815059  0.83738336     0.18400
H3519       H  0.71655720  0.84434643  0.84082508     0.18300
H3520       H  0.79363399  0.82418631  0.90232015     0.14200
C3521       C  0.48730711  0.71038206  0.89042234     0.29700
C3522       C  0.50304417  0.71680994  0.90143191    -0.36700
C3523       C  0.51965753  0.72182809  0.89173232     0.15600
C3524       C  0.52081280  0.72021735  0.87251640     0.21500
C3525       C  0.50501033  0.71409988  0.86147463    -0.34800
C3526       C  0.48831042  0.70954863  0.87117906     0.15600
O3527       O  0.47043328  0.70445579  0.89663046    -0.26800
C3528       C  0.46038764  0.70026325  0.88117579     0.05300
C3529       C  0.47075991  0.70328927  0.86489903    -0.31700
O3530       O  0.53780241  0.72576773  0.86641793    -0.23500
C3531       C  0.54758615  0.73132637  0.88194216    -0.03500
C3532       C  0.53699182  0.72922937  0.89808872    -0.18000
H3533       H  0.50237199  0.71790466  0.91651796     0.20000
H3534       H  0.50567225  0.71312613  0.84638674     0.18400
H3535       H  0.46612119  0.70037063  0.85059237     0.18300
H3536       H  0.54141757  0.73293739  0.91241103     0.14200
C3537       C  0.62388767  0.71632818  0.73375106     0.29700
C3538       C  0.61302884  0.71662127  0.74998452    -0.36700
C3539       C  0.62272962  0.71977153  0.76692874     0.15600
C3540       C  0.64174834  0.72313180  0.76777564     0.21500
C3541       C  0.65259272  0.72249695  0.75158811    -0.34800
C3542       C  0.64294029  0.71876338  0.73470431     0.15600
O3543       O  0.61783527  0.71207257  0.71649981    -0.26800
C3544       C  0.63323283  0.71143247  0.70633175     0.05300
C3545       C  0.64925931  0.71548436  0.71692398    -0.31700
O3546       O  0.64787877  0.72779861  0.78493757    -0.23500
C3547       C  0.63264681  0.72683125  0.79531276    -0.03500
C3548       C  0.61657300  0.72164982  0.78487533    -0.18000
H3549       H  0.59809731  0.71428701  0.74944980     0.20000
H3550       H  0.66752894  0.72469173  0.75212787     0.18400
H3551       H  0.66349681  0.71477103  0.71226546     0.18300
H3552       H  0.60238401  0.72138914  0.78969802     0.14200
C3553       C  0.63291175  0.35414139  0.98642907     0.29700
C3554       C  0.64258567  0.36305709  0.00286665    -0.36700
C3555       C  0.63260497  0.35984675  0.01965912     0.15600
C3556       C  0.61441304  0.34876419  0.02013251     0.21500
C3557       C  0.60475266  0.34043022  0.00381614    -0.34800
C3558       C  0.61467785  0.34346219  0.98719823     0.15600
O3559       O  0.63972404  0.35233192  0.96928905    -0.26800
C3560       C  0.62555109  0.34032226  0.95915266     0.05300
C3561       C  0.60969935  0.33456528  0.96963979    -0.31700
O3562       O  0.60825836  0.34402507  0.03720473    -0.23500
C3563       C  0.62257051  0.35235386  0.04800463    -0.03500
C3564       C  0.63811428  0.36266407  0.03787706    -0.18000
H3565       H  0.65704730  0.37046358  0.00267276     0.20000
H3566       H  0.59069740  0.33062314  0.00413385     0.18400
H3567       H  0.59655411  0.32390210  0.96508239     0.18300
H3568       H  0.65183483  0.36859313  0.04312628     0.14200
C3569       C  0.63292197  0.56780308  0.88447308     0.29700
C3570       C  0.64091454  0.53838822  0.89307026    -0.36700
C3571       C  0.63510095  0.50587082  0.88630843     0.15600
C3572       C  0.62224622  0.50264009  0.87210410     0.21500
C3573       C  0.61420935  0.53206042  0.86352938    -0.34800
C3574       C  0.62007004  0.56460468  0.87026181     0.15600
O3575       O  0.63660941  0.60061042  0.88844409    -0.26800
C3576       C  0.62600030  0.61881896  0.87667269     0.05300
C3577       C  0.61536134  0.59778721  0.86498774    -0.31700
O3578       O  0.61895927  0.46981989  0.86782190    -0.23500
C3579       C  0.62987029  0.45171237  0.87936449    -0.03500
C3580       C  0.64023976  0.47276469  0.89124906    -0.18000
H3581       H  0.65106800  0.54072948  0.90415894     0.20000
H3582       H  0.60419580  0.52971278  0.85231076     0.18400
H3583       H  0.60575456  0.60576001  0.85413413     0.18300
H3584       H  0.65011849  0.46485549  0.90186440     0.14200
C3585       C  0.62371711  0.06755067  0.86966466     0.29700
C3586       C  0.61526508  0.03721956  0.86277142    -0.36700
C3587       C  0.62275977  0.00544999  0.86910291     0.15600
C3588       C  0.63755877  0.00346092  0.88134219     0.21500
C3589       C  0.64606519  0.03379057  0.88815069    -0.34800
C3590       C  0.63855474  0.06554522  0.88185360     0.15600
O3591       O  0.61879154  0.10009476  0.86591822    -0.26800
C3592       C  0.63065521  0.11910883  0.87587433     0.05300
C3593       C  0.64325878  0.09894301  0.88600020    -0.31700
O3594       O  0.64212116  0.97093028  0.88558694    -0.23500
C3595       C  0.63006404  0.95185569  0.87591007    -0.03500
C3596       C  0.61773848  0.97201740  0.86540532    -0.18000
H3597       H  0.60357398  0.03828912  0.85327247     0.20000
H3598       H  0.65762800  0.03273266  0.89780611     0.18400
H3599       H  0.65421575  0.10768800  0.89523461     0.18300
H3600       H  0.60660070  0.96324308  0.85640147     0.14200
C3601       C  0.77272458  0.33753604  0.88197193     0.29700
C3602       C  0.75663170  0.34142488  0.89279103    -0.36700
C3603       C  0.73975448  0.34189838  0.88290313     0.15600
C3604       C  0.73882010  0.33836586  0.86374384     0.21500
C3605       C  0.75485350  0.33483942  0.85295805    -0.34800
C3606       C  0.77166250  0.33457722  0.86279749     0.15600
O3607       O  0.79002423  0.33800470  0.88811520    -0.26800
C3608       C  0.80012816  0.33536984  0.87263740     0.05300
C3609       C  0.78937642  0.33308851  0.85651138    -0.31700
O3610       O  0.72166873  0.33686923  0.85745782    -0.23500
C3611       C  0.71136090  0.33997035  0.87271172    -0.03500
C3612       C  0.72186949  0.34348047  0.88897804    -0.18000
H3613       H  0.75722476  0.34392771  0.90783430     0.20000
H3614       H  0.75425160  0.33221058  0.83792067     0.18400
H3615       H  0.79398400  0.33240438  0.84214756     0.18300
H3616       H  0.71704306  0.34435431  0.90326403     0.14200
C3617       C  0.52188347  0.22622907  0.87047371     0.29700
C3618       C  0.50600859  0.22174243  0.85925462    -0.36700
C3619       C  0.48932141  0.21566765  0.86881625     0.15600
C3620       C  0.48842339  0.21371051  0.88804736     0.21500
C3621       C  0.50417545  0.21872061  0.89921658    -0.34800
C3622       C  0.52074071  0.22514794  0.88970272     0.15600
O3623       O  0.53897501  0.23194915  0.86461816    -0.26800
C3624       C  0.54878548  0.23488418  0.88035565     0.05300
C3625       C  0.53811051  0.23103169  0.89634379    -0.31700
O3626       O  0.47167277  0.20626484  0.89410707    -0.23500
C3627       C  0.46153616  0.20384934  0.87861133    -0.03500
C3628       C  0.47175449  0.20965302  0.86241723    -0.18000
H3629       H  0.50663613  0.22271723  0.84416154     0.20000
H3630       H  0.50358099  0.21742842  0.91430592     0.18400
H3631       H  0.54255651  0.23229025  0.91078611     0.18300
H3632       H  0.46704186  0.20846889  0.84806051     0.14200
C3633       C  0.62676814  0.21448466  0.73506060     0.29700
C3634       C  0.61577202  0.21711963  0.75114452    -0.36700
C3635       C  0.62538348  0.22055553  0.76813952     0.15600
C3636       C  0.64446122  0.22213588  0.76917175     0.21500
C3637       C  0.65542610  0.21926964  0.75314068    -0.34800
C3638       C  0.64585221  0.21510397  0.73622943     0.15600
O3639       O  0.62078923  0.20980373  0.71779115    -0.26800
C3640       C  0.63626979  0.20705508  0.70784320     0.05300
C3641       C  0.65225831  0.21003512  0.71860879    -0.31700
O3642       O  0.65055955  0.22683531  0.78635914    -0.23500
C3643       C  0.63522393  0.22763275  0.79657065    -0.03500
C3644       C  0.61912705  0.22370071  0.78599297    -0.18000
H3645       H  0.60080197  0.21616713  0.75047944     0.20000
H3646       H  0.67039783  0.21998170  0.75382481     0.18400
H3647       H  0.66651662  0.20796446  0.71413331     0.18300
H3648       H  0.60490234  0.22461216  0.79068812     0.14200
loop_ 
_geom_bond_atom_site_label_1 
_geom_bond_atom_site_label_2 
_geom_bond_distance 
_geom_bond_site_symmetry_2 
_ccdc_geom_bond_type 
Zr1           O2   2.442       .  S
Zr1           O3   2.455       .  S
Zr1           O4   2.447       .  S
Zr1           O7   2.453       .  S
Zr1           O9   2.385       .  S
Zr1          O10   2.388       .  S
Zr1          O11   2.414       .  S
Zr1          O12   2.397       .  S
O2           H58   0.990       .  S
O2           H66   0.991       .  S
O3           C23   1.286       .  A
O4           C25   1.285       .  A
O5          Zr15   2.421       .  S
O5           C24   1.283       .  A
O6          Zr14   2.433       .  S
O6           C25   1.283       .  A
O7           C24   1.286       .  A
O8          Zr16   2.397       .  S
O8           C23   1.277       .  A
O9          Zr14   2.396       .  S
O9          Zr16   2.382       .  S
O10         Zr15   2.390       .  S
O10         Zr16   2.380       .  S
O10          H45   0.966       .  S
O11         Zr14   2.398       .  S
O11         Zr31   2.382       .  S
O11          H48   0.964       .  S
O12         Zr15   2.383       .  S
O12         Zr31   2.388       .  S
Zr13         O38   2.442       .  S
Zr13         O32   2.458       .  S
Zr13         O40   2.455       .  S
Zr13         O28   2.458       .  S
Zr13         O19   2.407       .  S
Zr13         O20   2.416       .  S
Zr13         O21   2.387       .  S
Zr13         O22   2.387       .  S
Zr14         O33   2.435       .  S
Zr14         O26   2.435       .  S
Zr14         O27   2.426       .  S
Zr14         O20   2.405       .  S
Zr14         O21   2.399       .  S
Zr15         O17   2.435       .  S
Zr15         O39   2.437       .  S
Zr15         O41   2.411       .  S
Zr15         O19   2.390       .  S
Zr15         O22   2.390       .  S
Zr16         O42   2.435       .  S
Zr16         O43   2.435       .  S
Zr16         O18   2.438       .  S
Zr16         O19   2.388       .  S
Zr16         O20   2.377       .  S
O17          H54   0.990       .  S
O18          H49   0.990       .  S
O18          H63   0.990       .  S
O20          H46   0.964       .  S
O21         Zr31   2.382       .  S
O22         Zr31   2.379       .  S
O22          H47   0.966       .  S
C23        C3592   1.471       .  S
C24        C3624   1.474       .  S
C25        C3643   1.470       .  S
O26          H62   0.990       .  S
O27          C29   1.283       .  A
O28          C29   1.287       .  A
C29        C3611   1.471       .  S
O30         Zr31   2.438       .  S
O30          H59   0.991       .  S
Zr31         O34   2.437       .  S
Zr31         O35   2.438       .  S
Zr31         O36   2.397       .  S
O32          C37   1.287       .  A
O33          H50   0.990       .  S
O33          H65   0.990       .  S
O34          H51   0.990       .  S
O35          H55   0.990       .  S
O35          H64   0.990       .  S
O36          C37   1.276       .  A
C37        C3579   1.470       .  S
O38          H57   0.991       .  S
O38          H61   0.990       .  S
O39          H53   0.990       .  S
O39          H60   0.990       .  S
O40          C44   1.286       .  A
O41          C44   1.282       .  A
O42          H52   0.990       .  S
O43          H56   0.990       .  S
C44        C3560   1.474       .  S
Zr67         O68   2.443       .  S
Zr67         O69   2.455       .  S
Zr67         O70   2.455       .  S
Zr67         O73   2.445       .  S
Zr67         O75   2.382       .  S
Zr67         O76   2.390       .  S
Zr67         O77   2.412       .  S
Zr67         O78   2.402       .  S
O68         H124   0.990       .  S
O68         H132   0.991       .  S
O69          C89   1.286       .  A
O70          C91   1.287       .  A
O71         Zr81   2.427       .  S
O71          C90   1.284       .  A
O72         Zr80   2.421       .  S
O72          C91   1.281       .  A
O73          C90   1.286       .  A
O74         Zr82   2.406       .  S
O74          C89   1.278       .  A
O75         Zr80   2.400       .  S
O75         Zr82   2.383       .  S
O76         Zr81   2.393       .  S
O76         Zr82   2.374       .  S
O76         H111   0.966       .  S
O77         Zr80   2.402       .  S
O77         Zr97   2.386       .  S
O77         H114   0.964       .  S
O78         Zr81   2.391       .  S
O78         Zr97   2.385       .  S
Zr79        O104   2.442       .  S
Zr79         O98   2.463       .  S
Zr79        O106   2.456       .  S
Zr79         O94   2.468       .  S
Zr79         O85   2.411       .  S
Zr79         O86   2.417       .  S
Zr79         O87   2.386       .  S
Zr79         O88   2.389       .  S
Zr80         O99   2.437       .  S
Zr80         O92   2.434       .  S
Zr80         O93   2.436       .  S
Zr80         O86   2.397       .  S
Zr80         O87   2.396       .  S
Zr81         O83   2.435       .  S
Zr81        O105   2.436       .  S
Zr81        O107   2.426       .  S
Zr81         O85   2.391       .  S
Zr81         O88   2.393       .  S
Zr82        O108   2.434       .  S
Zr82        O109   2.434       .  S
Zr82         O84   2.437       .  S
Zr82         O85   2.395       .  S
Zr82         O86   2.377       .  S
O83         H120   0.990       .  S
O84         H115   0.990       .  S
O84         H129   0.990       .  S
O86         H112   0.963       .  S
O87         Zr97   2.389       .  S
O88         Zr97   2.379       .  S
O88         H113   0.966       .  S
C89        C3576   1.472       .  S
C90        C3531   1.472       .  S
C91        C3547   1.469       .  S
O92         H128   0.990       .  S
O93          C95   1.285       .  A
O94          C95   1.289       .  A
C95        C3512   1.477       .  S
O96         Zr97   2.440       .  S
O96         H125   0.991       .  S
Zr97        O100   2.439       .  S
Zr97        O101   2.440       .  S
Zr97        O102   2.395       .  S
O98         C103   1.287       .  A
O99         H116   0.990       .  S
O99         H131   0.990       .  S
O100        H117   0.990       .  S
O101        H121   0.990       .  S
O101        H130   0.990       .  S
O102        C103   1.277       .  A
C103       C3595   1.473       .  S
O104        H123   0.990       .  S
O104        H127   0.990       .  S
O105        H119   0.990       .  S
O105        H126   0.990       .  S
O106        C110   1.288       .  A
O107        C110   1.283       .  A
O108        H118   0.990       .  S
O109        H122   0.990       .  S
C110       C3499   1.478       .  S
Zr133       O134   2.443       .  S
Zr133       O135   2.457       .  S
Zr133       O136   2.454       .  S
Zr133       O139   2.451       .  S
Zr133       O141   2.388       .  S
Zr133       O142   2.385       .  S
Zr133       O143   2.414       .  S
Zr133       O144   2.405       .  S
O134        H190   0.990       .  S
O134        H198   0.991       .  S
O135        C155   1.286       .  A
O136        C157   1.285       .  A
O137       Zr147   2.429       .  S
O137        C156   1.284       .  A
O138       Zr146   2.429       .  S
O138        C157   1.283       .  A
O139        C156   1.286       .  A
O140       Zr148   2.404       .  S
O140        C155   1.278       .  A
O141       Zr146   2.402       .  S
O141       Zr148   2.388       .  S
O142       Zr147   2.389       .  S
O142       Zr148   2.375       .  S
O142        H177   0.966       .  S
O143       Zr146   2.396       .  S
O143       Zr163   2.383       .  S
O143        H180   0.964       .  S
O144       Zr147   2.388       .  S
O144       Zr163   2.388       .  S
Zr145       O170   2.442       .  S
Zr145       O164   2.458       .  S
Zr145       O172   2.447       .  S
Zr145       O160   2.466       .  S
Zr145       O151   2.411       .  S
Zr145       O152   2.413       .  S
Zr145       O153   2.385       .  S
Zr145       O154   2.386       .  S
Zr146       O165   2.435       .  S
Zr146       O158   2.436       .  S
Zr146       O159   2.427       .  S
Zr146       O152   2.400       .  S
Zr146       O153   2.394       .  S
Zr147       O149   2.435       .  S
Zr147       O171   2.437       .  S
Zr147       O173   2.419       .  S
Zr147       O151   2.396       .  S
Zr147       O154   2.394       .  S
Zr148       O174   2.435       .  S
Zr148       O175   2.436       .  S
Zr148       O150   2.438       .  S
Zr148       O151   2.393       .  S
Zr148       O152   2.377       .  S
O149        H186   0.990       .  S
O150        H181   0.990       .  S
O150        H195   0.990       .  S
O152        H178   0.964       .  S
O153       Zr163   2.387       .  S
O154       Zr163   2.376       .  S
O154        H179   0.966       .  S
C155       C3448   1.474       .  S
C156       C3483   1.475       .  S
C157       C3640   1.471       .  S
O158        H194   0.990       .  S
O159        C161   1.284       .  A
O160        C161   1.288       .  A
C161       C3464   1.475       .  S
O162       Zr163   2.438       .  S
O162        H191   0.990       .  S
Zr163       O166   2.437       .  S
Zr163       O167   2.442       .  S
Zr163       O168   2.401       .  S
O164        C169   1.288       .  A
O165        H182   0.990       .  S
O165        H197   0.990       .  S
O166        H183   0.990       .  S
O167        H187   0.989       .  S
O167        H196   0.990       .  S
O168        C169   1.277       .  A
C169       C3435   1.471   1_545  S
O170        H189   0.990       .  S
O170        H193   0.990       .  S
O171        H185   0.990       .  S
O171        H192   0.990       .  S
O172        C176   1.286       .  A
O173        C176   1.283       .  A
O174        H184   0.990       .  S
O175        H188   0.990       .  S
C176       C3419   1.472       .  S
Zr199       O200   2.443       .  S
Zr199       O201   2.444       .  S
Zr199       O202   2.441       .  S
Zr199       O205   2.439       .  S
Zr199       O207   2.383       .  S
Zr199       O208   2.386       .  S
Zr199       O209   2.410       .  S
Zr199       O210   2.400       .  S
O200        H256   0.990       .  S
O200        H264   0.991       .  S
O201        C221   1.285       .  A
O202        C223   1.283       .  A
O203       Zr213   2.412       .  S
O203        C222   1.281       .  A
O204       Zr212   2.433       .  S
O204        C223   1.284       .  A
O205        C222   1.284       .  A
O206       Zr214   2.413       .  S
O206        C221   1.280       .  A
O207       Zr212   2.393       .  S
O207       Zr214   2.383       .  S
O208       Zr213   2.387       .  S
O208       Zr214   2.375       .  S
O208        H243   0.966       .  S
O209       Zr212   2.400       .  S
O209       Zr229   2.385       .  S
O209        H246   0.965       .  S
O210       Zr213   2.388       .  S
O210       Zr229   2.386       .  S
Zr211       O236   2.442       .  S
Zr211       O230   2.455       .  S
Zr211       O238   2.450       .  S
Zr211       O226   2.461       .  S
Zr211       O217   2.408       .  S
Zr211       O218   2.414       .  S
Zr211       O219   2.383       .  S
Zr211       O220   2.386       .  S
Zr212       O231   2.436       .  S
Zr212       O224   2.435       .  S
Zr212       O225   2.425       .  S
Zr212       O218   2.396       .  S
Zr212       O219   2.401       .  S
Zr213       O215   2.435       .  S
Zr213       O237   2.437       .  S
Zr213       O239   2.416       .  S
Zr213       O217   2.385       .  S
Zr213       O220   2.394       .  S
Zr214       O240   2.435       .  S
Zr214       O241   2.436       .  S
Zr214       O216   2.437       .  S
Zr214       O217   2.393       .  S
Zr214       O218   2.385       .  S
O215        H252   0.990       .  S
O216        H247   0.990       .  S
O216        H261   0.990       .  S
O218        H244   0.965       .  S
O219       Zr229   2.384       .  S
O220       Zr229   2.378       .  S
O220        H245   0.966       .  S
C221       C3432   1.470       .  S
C222       C3400   1.464       .  S
C223       C3544   1.468       .  S
O224        H260   0.990       .  S
O225        C227   1.283       .  A
O226        C227   1.288       .  A
C227       C3384   1.474       .  S
O228       Zr229   2.439       .  S
O228        H257   0.990       .  S
Zr229       O232   2.437       .  S
Zr229       O233   2.440       .  S
Zr229       O234   2.406       .  S
O230        C235   1.286       .  A
O231        H248   0.990       .  S
O231        H263   0.990       .  S
O232        H249   0.990       .  S
O233        H253   0.990       .  S
O233        H262   0.990       .  S
O234        C235   1.279       .  A
C235       C3451   1.474       .  S
O236        H255   0.990       .  S
O236        H259   0.990       .  S
O237        H251   0.990       .  S
O237        H258   0.990       .  S
O238        C242   1.286       .  A
O239        C242   1.282       .  A
O240        H250   0.990       .  S
O241        H254   0.990       .  S
C242       C3371   1.473       .  S
Zr265       O266   2.441       .  S
Zr265       O267   2.447       .  S
Zr265       O268   2.454       .  S
Zr265       O271   2.450       .  S
Zr265       O273   2.382       .  S
Zr265       O274   2.387       .  S
Zr265       O275   2.412       .  S
Zr265       O276   2.398       .  S
O266        H322   0.990       .  S
O266        H330   0.990       .  S
O267        C287   1.285       .  A
O268        C289   1.286       .  A
O269       Zr279   2.426       .  S
O269        C288   1.283       .  A
O270       Zr278   2.419       .  S
O270        C289   1.282       .  A
O271        C288   1.287       .  A
O272       Zr280   2.407       .  S
O272        C287   1.278       .  A
O273       Zr278   2.395       .  S
O273       Zr280   2.380       .  S
O274       Zr279   2.392       .  S
O274       Zr280   2.378       .  S
O274        H309   0.966       .  S
O275       Zr278   2.402       .  S
O275       Zr295   2.389       .  S
O275        H312   0.965       .  S
O276       Zr279   2.388       .  S
O276       Zr295   2.389       .  S
Zr277       O302   2.440       .  S
Zr277       O296   2.457       .  S
Zr277       O304   2.451       .  S
Zr277       O292   2.467       .  S
Zr277       O283   2.406       .  S
Zr277       O284   2.415       .  S
Zr277       O285   2.383       .  S
Zr277       O286   2.386       .  S
Zr278       O297   2.436       .  S
Zr278       O290   2.435       .  S
Zr278       O291   2.424       .  S
Zr278       O284   2.398       .  S
Zr278       O285   2.396       .  S
Zr279       O281   2.434       .  S
Zr279       O303   2.437       .  S
Zr279       O305   2.422       .  S
Zr279       O283   2.389       .  S
Zr279       O286   2.394       .  S
Zr280       O306   2.436       .  S
Zr280       O307   2.436       .  S
Zr280       O282   2.437       .  S
Zr280       O283   2.391       .  S
Zr280       O284   2.381       .  S
O281        H318   0.990       .  S
O282        H313   0.990       .  S
O282        H327   0.990       .  S
O284        H310   0.964       .  S
O285       Zr295   2.385       .  S
O286       Zr295   2.380       .  S
O286        H311   0.966       .  S
C287       C3320   1.469       .  S
C288       C3627   1.473       .  S
C289       C3352   1.469       .  S
O290        H326   0.990       .  S
O291        C293   1.283       .  A
O292        C293   1.289       .  A
C293       C3336   1.474       .  S
O294       Zr295   2.440       .  S
O294        H323   0.991       .  S
Zr295       O298   2.438       .  S
Zr295       O299   2.440       .  S
Zr295       O300   2.406       .  S
O296        C301   1.287       .  A
O297        H314   0.990       .  S
O297        H329   0.990       .  S
O298        H315   0.990       .  S
O299        H319   0.990       .  S
O299        H328   0.990       .  S
O300        C301   1.279       .  A
C301       C3307   1.475   1_545  S
O302        H321   0.990       .  S
O302        H325   0.990       .  S
O303        H317   0.990       .  S
O303        H324   0.990       .  S
O304        C308   1.287       .  A
O305        C308   1.283       .  A
O306        H316   0.990       .  S
O307        H320   0.990       .  S
C308       C3288   1.474       .  S
Zr331       O332   2.443       .  S
Zr331       O333   2.454       .  S
Zr331       O334   2.454       .  S
Zr331       O337   2.450       .  S
Zr331       O339   2.381       .  S
Zr331       O340   2.389       .  S
Zr331       O341   2.417       .  S
Zr331       O342   2.403       .  S
O332        H388   0.990       .  S
O332        H396   0.990       .  S
O333        C353   1.286       .  A
O334        C355   1.286       .  A
O335       Zr345   2.425       .  S
O335        C354   1.283       .  A
O336       Zr344   2.429       .  S
O336        C355   1.283       .  A
O337        C354   1.287       .  A
O338       Zr346   2.403       .  S
O338        C353   1.278       .  A
O339       Zr344   2.395       .  S
O339       Zr346   2.380       .  S
O340       Zr345   2.394       .  S
O340       Zr346   2.377       .  S
O340        H375   0.966       .  S
O341       Zr344   2.397       .  S
O341       Zr361   2.394       .  S
O341        H378   0.965       .  S
O342       Zr345   2.389       .  S
O342       Zr361   2.384       .  S
Zr343       O368   2.442       .  S
Zr343       O362   2.452       .  S
Zr343       O370   2.448       .  S
Zr343       O358   2.452       .  S
Zr343       O349   2.404       .  S
Zr343       O350   2.413       .  S
Zr343       O351   2.387       .  S
Zr343       O352   2.387       .  S
Zr344       O363   2.439       .  S
Zr344       O356   2.435       .  S
Zr344       O357   2.422       .  S
Zr344       O350   2.400       .  S
Zr344       O351   2.395       .  S
Zr345       O347   2.436       .  S
Zr345       O369   2.437       .  S
Zr345       O371   2.418       .  S
Zr345       O349   2.389       .  S
Zr345       O352   2.392       .  S
Zr346       O372   2.434       .  S
Zr346       O373   2.435       .  S
Zr346       O348   2.437       .  S
Zr346       O349   2.390       .  S
Zr346       O350   2.381       .  S
O347        H384   0.990       .  S
O348        H379   0.990       .  S
O348        H393   0.990       .  S
O350        H376   0.965       .  S
O351       Zr361   2.384       .  S
O352       Zr361   2.378       .  S
O352        H377   0.966       .  S
C353       C3304   1.473       .  S
C354       C3528   1.471       .  S
C355       C3275   1.474       .  S
O356        H392   0.990       .  S
O357        C359   1.282       .  A
O358        C359   1.285       .  A
C359       C3259   1.468       .  S
O360       Zr361   2.439       .  S
O360        H389   0.990       .  S
Zr361       O364   2.434       .  S
Zr361       O365   2.441       .  S
Zr361       O366   2.405       .  S
O362        C367   1.287       .  A
O363        H380   0.990       .  S
O363        H395   0.990       .  S
O364        H381   0.989       .  S
O365        H385   0.990       .  S
O365        H394   0.990       .  S
O366        C367   1.278       .  A
C367       C3323   1.470       .  S
O368        H387   0.991       .  S
O368        H391   0.990       .  S
O369        H383   0.990       .  S
O369        H390   0.990       .  S
O370        C374   1.285       .  A
O371        C374   1.282       .  A
O372        H382   0.990       .  S
O373        H386   0.990       .  S
C374       C3240   1.474       .  S
Zr397       O398   2.442       .  S
Zr397       O399   2.453       .  S
Zr397       O400   2.450       .  S
Zr397       O403   2.446       .  S
Zr397       O405   2.381       .  S
Zr397       O406   2.390       .  S
Zr397       O407   2.415       .  S
Zr397       O408   2.404       .  S
O398        H454   0.990       .  S
O398        H462   0.991       .  S
O399        C419   1.286       .  A
O400        C421   1.286       .  A
O401       Zr411   2.425       .  S
O401        C420   1.283       .  A
O402       Zr410   2.423       .  S
O402        C421   1.281       .  A
O403        C420   1.286       .  A
O404       Zr412   2.400       .  S
O404        C419   1.276       .  A
O405       Zr410   2.394       .  S
O405       Zr412   2.381       .  S
O406       Zr411   2.392       .  S
O406       Zr412   2.379       .  S
O406        H441   0.966       .  S
O407       Zr410   2.397       .  S
O407       Zr427   2.382       .  S
O407        H444   0.964       .  S
O408       Zr411   2.387       .  S
O408       Zr427   2.387       .  S
Zr409       O434   2.443       .  S
Zr409       O428   2.461       .  S
Zr409       O436   2.450       .  S
Zr409       O424   2.467       .  S
Zr409       O415   2.410       .  S
Zr409       O416   2.410       .  S
Zr409       O417   2.383       .  S
Zr409       O418   2.388       .  S
Zr410       O429   2.436       .  S
Zr410       O422   2.434       .  S
Zr410       O423   2.419       .  S
Zr410       O416   2.399       .  S
Zr410       O417   2.397       .  S
Zr411       O413   2.436       .  S
Zr411       O435   2.436       .  S
Zr411       O437   2.416       .  S
Zr411       O415   2.393       .  S
Zr411       O418   2.394       .  S
Zr412       O438   2.437       .  S
Zr412       O439   2.435       .  S
Zr412       O414   2.440       .  S
Zr412       O415   2.394       .  S
Zr412       O416   2.383       .  S
O413        H450   0.990       .  S
O414        H445   0.990       .  S
O414        H459   0.990       .  S
O416        H442   0.964       .  S
O417       Zr427   2.385       .  S
O418       Zr427   2.377       .  S
O418        H443   0.966       .  S
C419       C3211   1.469       .  S
C420       C3480   1.471       .  S
C421       C3355   1.465       .  S
O422        H458   0.990       .  S
O423        C425   1.281       .  A
O424        C425   1.289       .  A
C425       C3224   1.473       .  S
O426       Zr427   2.439       .  S
O426        H455   0.990       .  S
Zr427       O430   2.437       .  S
Zr427       O431   2.439       .  S
Zr427       O432   2.405       .  S
O428        C433   1.288       .  A
O429        H446   0.990       .  S
O429        H461   0.990       .  S
O430        H447   0.990       .  S
O431        H451   0.990       .  S
O431        H460   0.990       .  S
O432        C433   1.278       .  A
C433       C3192   1.474       .  S
O434        H453   0.991       .  S
O434        H457   0.990       .  S
O435        H449   0.990       .  S
O435        H456   0.990       .  S
O436        C440   1.286       .  A
O437        C440   1.282       .  A
O438        H448   0.990       .  S
O439        H452   0.990       .  S
C440       C3179   1.473       .  S
Zr463       O464   2.441       .  S
Zr463       O465   2.451       .  S
Zr463       O466   2.455       .  S
Zr463       O469   2.443       .  S
Zr463       O471   2.384       .  S
Zr463       O472   2.391       .  S
Zr463       O473   2.407       .  S
Zr463       O474   2.399       .  S
O464        H520   0.990       .  S
O464        H528   0.991       .  S
O465        C485   1.287       .  A
O466        C487   1.287       .  A
O467       Zr477   2.415       .  S
O467        C486   1.281       .  A
O468       Zr476   2.427       .  S
O468        C487   1.282       .  A
O469        C486   1.285       .  A
O470       Zr478   2.406       .  S
O470        C485   1.278       .  A
O471       Zr476   2.395       .  S
O471       Zr478   2.383       .  S
O472       Zr477   2.392       .  S
O472       Zr478   2.379       .  S
O472        H507   0.966       .  S
O473       Zr476   2.395       .  S
O473       Zr493   2.382       .  S
O473        H510   0.964       .  S
O474       Zr477   2.386       .  S
O474       Zr493   2.383       .  S
Zr475       O500   2.442       .  S
Zr475       O494   2.459       .  S
Zr475       O502   2.448       .  S
Zr475       O490   2.459       .  S
Zr475       O481   2.406       .  S
Zr475       O482   2.414       .  S
Zr475       O483   2.383       .  S
Zr475       O484   2.387       .  S
Zr476       O495   2.436       .  S
Zr476       O488   2.436       .  S
Zr476       O489   2.412       .  S
Zr476       O482   2.402       .  S
Zr476       O483   2.397       .  S
Zr477       O479   2.435       .  S
Zr477       O501   2.436       .  S
Zr477       O503   2.426       .  S
Zr477       O481   2.387       .  S
Zr477       O484   2.391       .  S
Zr478       O504   2.436       .  S
Zr478       O505   2.436       .  S
Zr478       O480   2.441       .  S
Zr478       O481   2.395       .  S
Zr478       O482   2.381       .  S
O479        H516   0.990       .  S
O480        H511   0.990       .  S
O480        H525   0.990       .  S
O482        H508   0.964       .  S
O483       Zr493   2.380       .  S
O484       Zr493   2.382       .  S
O484        H509   0.966       .  S
C485       C3195   1.471       .  S
C486       C3403   1.463       .  S
C487       C3272   1.471       .  S
O488        H524   0.990       .  S
O489        C491   1.281       .  A
O490        C491   1.287       .  A
C491       C3160   1.465       .  S
O492       Zr493   2.440       .  S
O492        H521   0.990       .  S
Zr493       O496   2.437       .  S
Zr493       O497   2.439       .  S
Zr493       O498   2.398       .  S
O494        C499   1.288       .  A
O495        H512   0.990       .  S
O495        H527   0.990       .  S
O496        H513   0.990       .  S
O497        H517   0.990       .  S
O497        H526   0.990       .  S
O498        C499   1.277       .  A
C499       C3208   1.470       .  S
O500        H519   0.991       .  S
O500        H523   0.990       .  S
O501        H515   0.990       .  S
O501        H522   0.990       .  S
O502        C506   1.286       .  A
O503        C506   1.283       .  A
O504        H514   0.990       .  S
O505        H518   0.990       .  S
C506       C3147   1.476       .  S
Zr529       O530   2.442       .  S
Zr529       O531   2.455       .  S
Zr529       O532   2.457       .  S
Zr529       O535   2.453       .  S
Zr529       O537   2.385       .  S
Zr529       O538   2.387       .  S
Zr529       O539   2.416   1_565  S
Zr529       O540   2.405   1_565  S
O530        H586   0.990       .  S
O530        H594   0.990       .  S
O531        C551   1.287       .  A
O532        C553   1.287       .  A
O533       Zr543   2.414       .  S
O533        C552   1.282   1_545  A
O534       Zr542   2.432       .  S
O534        C553   1.284   1_545  A
O535        C552   1.287       .  A
O536       Zr544   2.406       .  S
O536        C551   1.278       .  A
O537       Zr542   2.403   1_565  S
O537       Zr544   2.385       .  S
O538       Zr543   2.390   1_565  S
O538       Zr544   2.375       .  S
O538        H573   0.966       .  S
O539       Zr542   2.399       .  S
O539       Zr559   2.393       .  S
O539        H576   0.964       .  S
O540       Zr543   2.389       .  S
O540       Zr559   2.385       .  S
Zr541       O566   2.442       .  S
Zr541       O560   2.451       .  S
Zr541       O568   2.444       .  S
Zr541       O556   2.459       .  S
Zr541       O547   2.409       .  S
Zr541       O548   2.415       .  S
Zr541       O549   2.384       .  S
Zr541       O550   2.389       .  S
Zr542       O561   2.436       .  S
Zr542       O554   2.434       .  S
Zr542       O555   2.427       .  S
Zr542       O548   2.402       .  S
Zr542       O549   2.394       .  S
Zr543       O545   2.435       .  S
Zr543       O567   2.439   1_545  S
Zr543       O569   2.417       .  S
Zr543       O547   2.389       .  S
Zr543       O550   2.393       .  S
Zr544       O570   2.434       .  S
Zr544       O571   2.435       .  S
Zr544       O546   2.436       .  S
Zr544       O547   2.394   1_565  S
Zr544       O548   2.382   1_565  S
O545        H582   0.990       .  S
O546        H577   0.990       .  S
O546        H591   0.990       .  S
O548        H574   0.964       .  S
O549       Zr559   2.385       .  S
O550       Zr559   2.377       .  S
O550        H575   0.966       .  S
C551       C3083   1.473       .  S
C552       C3112   1.472       .  S
C553       C3131   1.476       .  S
O554        H590   0.990   1_545  S
O555        C557   1.283       .  A
O556        C557   1.287       .  A
C557       C3467   1.473       .  S
O558       Zr559   2.439       .  S
O558        H587   0.990       .  S
Zr559       O562   2.437       .  S
Zr559       O563   2.440       .  S
Zr559       O564   2.407       .  S
O560        C565   1.285       .  A
O561        H578   0.990       .  S
O561        H593   0.990       .  S
O562        H579   0.990       .  S
O563        H583   0.990       .  S
O563        H592   0.990       .  S
O564        C565   1.279       .  A
C565       C3096   1.472       .  S
O566        H585   0.990       .  S
O566        H589   0.990       .  S
O567        H581   0.990       .  S
O567        H588   0.990       .  S
O568        C572   1.285       .  A
O569        C572   1.281       .  A
O570        H580   0.990       .  S
O571        H584   0.990   1_565  S
C572       C3067   1.469       .  S
Zr595       O596   2.443       .  S
Zr595       O597   2.455       .  S
Zr595       O598   2.443       .  S
Zr595       O601   2.452       .  S
Zr595       O603   2.387       .  S
Zr595       O604   2.384       .  S
Zr595       O605   2.416       .  S
Zr595       O606   2.403       .  S
O596        H652   0.991       .  S
O596        H660   0.990       .  S
O597        C617   1.285       .  A
O598        C619   1.283       .  A
O599       Zr609   2.435       .  S
O599        C618   1.285       .  A
O600       Zr608   2.427       .  S
O600        C619   1.282       .  A
O601        C618   1.286       .  A
O602       Zr610   2.394       .  S
O602        C617   1.277       .  A
O603       Zr608   2.403       .  S
O603       Zr610   2.382       .  S
O604       Zr609   2.389       .  S
O604       Zr610   2.378       .  S
O604        H639   0.966       .  S
O605       Zr608   2.398       .  S
O605       Zr625   2.387       .  S
O605        H642   0.964       .  S
O606       Zr609   2.387       .  S
O606       Zr625   2.394       .  S
Zr607       O632   2.442       .  S
Zr607       O626   2.457       .  S
Zr607       O634   2.446       .  S
Zr607       O622   2.469       .  S
Zr607       O613   2.409       .  S
Zr607       O614   2.414       .  S
Zr607       O615   2.382       .  S
Zr607       O616   2.391       .  S
Zr608       O627   2.438       .  S
Zr608       O620   2.433       .  S
Zr608       O621   2.424       .  S
Zr608       O614   2.401       .  S
Zr608       O615   2.394       .  S
Zr609       O611   2.436       .  S
Zr609       O633   2.438       .  S
Zr609       O635   2.415       .  S
Zr609       O613   2.397       .  S
Zr609       O616   2.394       .  S
Zr610       O636   2.435       .  S
Zr610       O637   2.437       .  S
Zr610       O612   2.438       .  S
Zr610       O613   2.388       .  S
Zr610       O614   2.379       .  S
O611        H648   0.990       .  S
O612        H643   0.990       .  S
O612        H657   0.990       .  S
O614        H640   0.964       .  S
O615       Zr625   2.381       .  S
O616       Zr625   2.378       .  S
O616        H641   0.966       .  S
C617       C3099   1.471       .  S
C618       C3032   1.480       .  S
C619       C3048   1.465       .  S
O620        H656   0.990       .  S
O621        C623   1.282       .  A
O622        C623   1.289       .  A
C623       C3387   1.475       .  S
O624       Zr625   2.438       .  S
O624        H653   0.990       .  S
Zr625       O628   2.436       .  S
Zr625       O629   2.439       .  S
Zr625       O630   2.403       .  S
O626        C631   1.287       .  A
O627        H644   0.990       .  S
O627        H659   0.990       .  S
O628        H645   0.990       .  S
O629        H649   0.990       .  S
O629        H658   0.990       .  S
O630        C631   1.278       .  A
C631       C3080   1.471       .  S
O632        H651   0.991       .  S
O632        H655   0.990       .  S
O633        H647   0.990       .  S
O633        H654   0.989       .  S
O634        C638   1.286       .  A
O635        C638   1.281       .  A
O636        H646   0.990       .  S
O637        H650   0.990       .  S
C638       C3019   1.469       .  S
Zr661       O662   2.442       .  S
Zr661       O663   2.447       .  S
Zr661       O664   2.442       .  S
Zr661       O667   2.438       .  S
Zr661       O669   2.384       .  S
Zr661       O670   2.387       .  S
Zr661       O671   2.411       .  S
Zr661       O672   2.401       .  S
O662        H718   0.990       .  S
O662        H726   0.990       .  S
O663        C683   1.285       .  A
O664        C685   1.284       .  A
O665       Zr675   2.425       .  S
O665        C684   1.283       .  A
O666       Zr674   2.420       .  S
O666        C685   1.281       .  A
O667        C684   1.284       .  A
O668       Zr676   2.406       .  S
O668        C683   1.278       .  A
O669       Zr674   2.397       .  S
O669       Zr676   2.384       .  S
O670       Zr675   2.387       .  S
O670       Zr676   2.376       .  S
O670        H705   0.966       .  S
O671       Zr674   2.399       .  S
O671       Zr691   2.390       .  S
O671        H708   0.965       .  S
O672       Zr675   2.383       .  S
O672       Zr691   2.389       .  S
Zr673       O698   2.441       .  S
Zr673       O692   2.456       .  S
Zr673       O700   2.444       .  S
Zr673       O688   2.467       .  S
Zr673       O679   2.411       .  S
Zr673       O680   2.416       .  S
Zr673       O681   2.383       .  S
Zr673       O682   2.388       .  S
Zr674       O693   2.436       .  S
Zr674       O686   2.436       .  S
Zr674       O687   2.423       .  S
Zr674       O680   2.399       .  S
Zr674       O681   2.397       .  S
Zr675       O677   2.436       .  S
Zr675       O699   2.436       .  S
Zr675       O701   2.410       .  S
Zr675       O679   2.393       .  S
Zr675       O682   2.392       .  S
Zr676       O702   2.436       .  S
Zr676       O703   2.436       .  S
Zr676       O678   2.437       .  S
Zr676       O679   2.390       .  S
Zr676       O680   2.381       .  S
O677        H714   0.990       .  S
O678        H709   0.990       .  S
O678        H723   0.990       .  S
O680        H706   0.964       .  S
O681       Zr691   2.387       .  S
O682       Zr691   2.375       .  S
O682        H707   0.966       .  S
C683       C2971   1.469       .  S
C684       C3003   1.469       .  S
C685       C3051   1.467       .  S
O686        H722   0.990       .  S
O687        C689   1.282       .  A
O688        C689   1.288       .  A
C689       C3608   1.474       .  S
O690       Zr691   2.438       .  S
O690        H719   0.990       .  S
Zr691       O694   2.436       .  S
Zr691       O695   2.442       .  S
Zr691       O696   2.401       .  S
O692        C697   1.286       .  A
O693        H710   0.990       .  S
O693        H725   0.990       .  S
O694        H711   0.990       .  S
O695        H715   0.990       .  S
O695        H724   0.990       .  S
O696        C697   1.277       .  A
C697       C2984   1.472       .  S
O698        H717   0.990       .  S
O698        H721   0.990       .  S
O699        H713   0.990       .  S
O699        H720   0.990       .  S
O700        C704   1.285       .  A
O701        C704   1.281       .  A
O702        H712   0.990       .  S
O703        H716   0.990       .  S
C704       C2955   1.466       .  S
Zr727       O728   2.442       .  S
Zr727       O729   2.461   1_565  S
Zr727       O730   2.457       .  S
Zr727       O733   2.446       .  S
Zr727       O735   2.383       .  S
Zr727       O736   2.387       .  S
Zr727       O737   2.414       .  S
Zr727       O738   2.407       .  S
O728        H784   0.990       .  S
O728        H792   0.991       .  S
O729        C749   1.288       .  A
O730        C751   1.287       .  A
O731       Zr741   2.425       .  S
O731        C750   1.283       .  A
O732       Zr740   2.436       .  S
O732        C751   1.283       .  A
O733        C750   1.285       .  A
O734       Zr742   2.406   1_545  S
O734        C749   1.278       .  A
O735       Zr740   2.397       .  S
O735       Zr742   2.385       .  S
O736       Zr741   2.390       .  S
O736       Zr742   2.376       .  S
O736        H771   0.966       .  S
O737       Zr740   2.400       .  S
O737       Zr757   2.389       .  S
O737        H774   0.964       .  S
O738       Zr741   2.382       .  S
O738       Zr757   2.390       .  S
Zr739       O764   2.441       .  S
Zr739       O758   2.457       .  S
Zr739       O766   2.461       .  S
Zr739       O754   2.475       .  S
Zr739       O745   2.410       .  S
Zr739       O746   2.412       .  S
Zr739       O747   2.383       .  S
Zr739       O748   2.394       .  S
Zr740       O759   2.436       .  S
Zr740       O752   2.435       .  S
Zr740       O753   2.426       .  S
Zr740       O746   2.403       .  S
Zr740       O747   2.400       .  S
Zr741       O743   2.434       .  S
Zr741       O765   2.440       .  S
Zr741       O767   2.403       .  S
Zr741       O745   2.394       .  S
Zr741       O748   2.398       .  S
Zr742       O768   2.435       .  S
Zr742       O769   2.435       .  S
Zr742       O744   2.437       .  S
Zr742       O745   2.387       .  S
Zr742       O746   2.387       .  S
O743        H780   0.990       .  S
O744        H775   0.990       .  S
O744        H789   0.990       .  S
O746        H772   0.965       .  S
O747       Zr757   2.384       .  S
O748       Zr757   2.376       .  S
O748        H773   0.966       .  S
C749       C2987   1.475       .  S
C750       C2936   1.473       .  S
C751       C3128   1.476       .  S
O752        H788   0.990       .  S
O753        C755   1.283       .  A
O754        C755   1.291       .  A
C755       C3515   1.481       .  S
O756       Zr757   2.436       .  S
O756        H785   0.990       .  S
Zr757       O760   2.435       .  S
Zr757       O761   2.441       .  S
Zr757       O762   2.404       .  S
O758        C763   1.287       .  A
O759        H776   0.990       .  S
O759        H791   0.990       .  S
O760        H777   0.990       .  S
O761        H781   0.990       .  S
O761        H790   0.989       .  S
O762        C763   1.277       .  A
C763       C2968   1.472       .  S
O764        H783   0.990       .  S
O764        H787   0.990       .  S
O765        H779   0.990       .  S
O765        H786   0.990       .  S
O766        C770   1.289       .  A
O767        C770   1.281       .  A
O768        H778   0.990       .  S
O769        H782   0.990       .  S
C770       C2923   1.473       .  S
Zr793       O794   2.443       .  S
Zr793       O795   2.451       .  S
Zr793       O796   2.444       .  S
Zr793       O799   2.441       .  S
Zr793       O801   2.380       .  S
Zr793       O802   2.385       .  S
Zr793       O803   2.413   1_565  S
Zr793       O804   2.404   1_565  S
O794        H850   0.991       .  S
O794        H858   0.990       .  S
O795        C815   1.285       .  A
O796        C817   1.284       .  A
O797       Zr807   2.428       .  S
O797        C816   1.283   1_545  A
O798       Zr806   2.421   1_565  S
O798        C817   1.281       .  A
O799        C816   1.285       .  A
O800       Zr808   2.405       .  S
O800        C815   1.277       .  A
O801       Zr806   2.399   1_565  S
O801       Zr808   2.384       .  S
O802       Zr807   2.392   1_565  S
O802       Zr808   2.375       .  S
O802        H837   0.966       .  S
O803       Zr806   2.395       .  S
O803       Zr823   2.391       .  S
O803        H840   0.964       .  S
O804       Zr807   2.391       .  S
O804       Zr823   2.390       .  S
Zr805       O830   2.441       .  S
Zr805       O824   2.455       .  S
Zr805       O832   2.455       .  S
Zr805       O820   2.468       .  S
Zr805       O811   2.407       .  S
Zr805       O812   2.415       .  S
Zr805       O813   2.386       .  S
Zr805       O814   2.391       .  S
Zr806       O825   2.437       .  S
Zr806       O818   2.434       .  S
Zr806       O819   2.414       .  S
Zr806       O812   2.400       .  S
Zr806       O813   2.394       .  S
Zr807       O809   2.436       .  S
Zr807       O831   2.437   1_545  S
Zr807       O833   2.427       .  S
Zr807       O811   2.389       .  S
Zr807       O814   2.395       .  S
Zr808       O834   2.435       .  S
Zr808       O835   2.435       .  S
Zr808       O810   2.437       .  S
Zr808       O811   2.392   1_565  S
Zr808       O812   2.379   1_565  S
O809        H846   0.990       .  S
O810        H841   0.990       .  S
O810        H855   0.990       .  S
O812        H838   0.964       .  S
O813       Zr823   2.385       .  S
O814       Zr823   2.382       .  S
O814        H839   0.966       .  S
C815       C2872   1.470       .  S
C816       C2939   1.469       .  S
C817       C2907   1.466       .  S
O818        H854   0.990       .  S
O819        C821   1.280       .  A
O820        C821   1.289       .  A
C821       C3339   1.471       .  S
O822       Zr823   2.440       .  S
O822        H851   0.991       .  S
Zr823       O826   2.437       .  S
Zr823       O827   2.440       .  S
Zr823       O828   2.406       .  S
O824        C829   1.287       .  A
O825        H842   0.990       .  S
O825        H857   0.990       .  S
O826        H843   0.990       .  S
O827        H847   0.990       .  S
O827        H856   0.990       .  S
O828        C829   1.278       .  A
C829       C2888   1.472       .  S
O830        H849   0.991       .  S
O830        H853   0.990       .  S
O831        H845   0.990   1_565  S
O831        H852   0.990       .  S
O832        C836   1.287       .  A
O833        C836   1.284       .  A
O834        H844   0.990       .  S
O835        H848   0.990   1_565  S
C836       C2859   1.481       .  S
Zr859       O860   2.441       .  S
Zr859       O861   2.456       .  S
Zr859       O862   2.453       .  S
Zr859       O865   2.445       .  S
Zr859       O867   2.383       .  S
Zr859       O868   2.388       .  S
Zr859       O869   2.412       .  S
Zr859       O870   2.406       .  S
O860        H916   0.990       .  S
O860        H924   0.990       .  S
O861        C881   1.287       .  A
O862        C883   1.286       .  A
O863       Zr873   2.423       .  S
O863        C882   1.283       .  A
O864       Zr872   2.421       .  S
O864        C883   1.281       .  A
O865        C882   1.286       .  A
O866       Zr874   2.401       .  S
O866        C881   1.277       .  A
O867       Zr872   2.399       .  S
O867       Zr874   2.384       .  S
O868       Zr873   2.394       .  S
O868       Zr874   2.376       .  S
O868        H903   0.966       .  S
O869       Zr872   2.397       .  S
O869       Zr889   2.388       .  S
O869        H906   0.965       .  S
O870       Zr873   2.388       .  S
O870       Zr889   2.390       .  S
Zr871       O896   2.443       .  S
Zr871       O890   2.453       .  S
Zr871       O898   2.440       .  S
Zr871       O886   2.454       .  S
Zr871       O877   2.406       .  S
Zr871       O878   2.414       .  S
Zr871       O879   2.382       .  S
Zr871       O880   2.388       .  S
Zr872       O891   2.439       .  S
Zr872       O884   2.434       .  S
Zr872       O885   2.419       .  S
Zr872       O878   2.404       .  S
Zr872       O879   2.392       .  S
Zr873       O875   2.435       .  S
Zr873       O897   2.436       .  S
Zr873       O899   2.426       .  S
Zr873       O877   2.392       .  S
Zr873       O880   2.392       .  S
Zr874       O900   2.437       .  S
Zr874       O901   2.435       .  S
Zr874       O876   2.439       .  S
Zr874       O877   2.388       .  S
Zr874       O878   2.385       .  S
O875        H912   0.990       .  S
O876        H907   0.990       .  S
O876        H921   0.990       .  S
O878        H904   0.964       .  S
O879       Zr889   2.383       .  S
O880       Zr889   2.377       .  S
O880        H905   0.966       .  S
C881       C2891   1.471       .  S
C882       C3000   1.471       .  S
C883       C2840   1.470       .  S
O884        H920   0.990       .  S
O885        C887   1.281       .  A
O886        C887   1.286       .  A
C887       C3256   1.467       .  S
O888       Zr889   2.438       .  S
O888        H917   0.990       .  S
Zr889       O892   2.438       .  S
Zr889       O893   2.440       .  S
Zr889       O894   2.400       .  S
O890        C895   1.287       .  A
O891        H908   0.990       .  S
O891        H923   0.990       .  S
O892        H909   0.990       .  S
O893        H913   0.990       .  S
O893        H922   0.990       .  S
O894        C895   1.277       .  A
C895       C2875   1.469       .  S
O896        H915   0.991       .  S
O896        H919   0.990       .  S
O897        H911   0.990       .  S
O897        H918   0.990       .  S
O898        C902   1.285       .  A
O899        C902   1.283       .  A
O900        H910   0.990       .  S
O901        H914   0.990       .  S
C902       C2824   1.472       .  S
Zr925       O926   2.441       .  S
Zr925       O927   2.442       .  S
Zr925       O928   2.452       .  S
Zr925       O931   2.451       .  S
Zr925       O933   2.382       .  S
Zr925       O934   2.390       .  S
Zr925       O935   2.408       .  S
Zr925       O936   2.397       .  S
O926        H982   0.990       .  S
O926        H990   0.991       .  S
O927        C947   1.284       .  A
O928        C949   1.287       .  A
O929       Zr939   2.438       .  S
O929        C948   1.285       .  A
O930       Zr938   2.420       .  S
O930        C949   1.281       .  A
O931        C948   1.287       .  A
O932       Zr940   2.409       .  S
O932        C947   1.279       .  A
O933       Zr938   2.396       .  S
O933       Zr940   2.381       .  S
O934       Zr939   2.390       .  S
O934       Zr940   2.379       .  S
O934        H969   0.966       .  S
O935       Zr938   2.403       .  S
O935       Zr955   2.387       .  S
O935        H972   0.964       .  S
O936       Zr939   2.387       .  S
O936       Zr955   2.382       .  S
Zr937       O962   2.443       .  S
Zr937       O956   2.472       .  S
Zr937       O964   2.444       .  S
Zr937       O952   2.472       .  S
Zr937       O943   2.414       .  S
Zr937       O944   2.417       .  S
Zr937       O945   2.381       .  S
Zr937       O946   2.394       .  S
Zr938       O957   2.438       .  S
Zr938       O950   2.435       .  S
Zr938       O951   2.422       .  S
Zr938       O944   2.403       .  S
Zr938       O945   2.397       .  S
Zr939       O941   2.434       .  S
Zr939       O963   2.438       .  S
Zr939       O965   2.422       .  S
Zr939       O943   2.391       .  S
Zr939       O946   2.398       .  S
Zr940       O966   2.437       .  S
Zr940       O967   2.436       .  S
Zr940       O942   2.439       .  S
Zr940       O943   2.390       .  S
Zr940       O944   2.392       .  S
O941        H978   0.990       .  S
O942        H973   0.990       .  S
O942        H987   0.990       .  S
O944        H970   0.964       .  S
O945       Zr955   2.384       .  S
O946       Zr955   2.380       .  S
O946        H971   0.966       .  S
C947       C2792   1.468       .  S
C948       C3035   1.479       .  S
C949       C2843   1.469       .  S
O950        H986   0.990       .  S
O951        C953   1.282       .  A
O952        C953   1.288       .  A
C953       C3227   1.477       .  S
O954       Zr955   2.438       .  S
O954        H983   0.991       .  S
Zr955       O958   2.437       .  S
Zr955       O959   2.441       .  S
Zr955       O960   2.388       .  S
O956        C961   1.289       .  A
O957        H974   0.990       .  S
O957        H989   0.990       .  S
O958        H975   0.990       .  S
O959        H979   0.990       .  S
O959        H988   0.990       .  S
O960        C961   1.275       .  A
C961       C2808   1.476       .  S
O962        H981   0.991       .  S
O962        H985   0.990       .  S
O963        H977   0.990       .  S
O963        H984   0.990       .  S
O964        C968   1.285       .  A
O965        C968   1.284       .  A
O966        H976   0.990       .  S
O967        H980   0.990       .  S
C968       C2779   1.471       .  S
Zr991       O992   2.442       .  S
Zr991       O993   2.462   1_565  S
Zr991       O994   2.450       .  S
Zr991       O997   2.449       .  S
Zr991       O999   2.382       .  S
Zr991      O1000   2.390       .  S
Zr991      O1001   2.417       .  S
Zr991      O1002   2.403       .  S
O992       H1048   0.990       .  S
O992       H1056   0.991       .  S
O993       C1013   1.287       .  A
O994       C1015   1.286       .  A
O995      Zr1005   2.431       .  S
O995       C1014   1.284       .  A
O996      Zr1004   2.417       .  S
O996       C1015   1.281       .  A
O997       C1014   1.287       .  A
O998      Zr1006   2.399   1_545  S
O998       C1013   1.278       .  A
O999      Zr1004   2.396       .  S
O999      Zr1006   2.380       .  S
O1000     Zr1005   2.388       .  S
O1000     Zr1006   2.380       .  S
O1000      H1035   0.965       .  S
O1001     Zr1004   2.397       .  S
O1001     Zr1021   2.390       .  S
O1001      H1038   0.964       .  S
O1002     Zr1005   2.385       .  S
O1002     Zr1021   2.383       .  S
Zr1003     O1028   2.443       .  S
Zr1003     O1022   2.455       .  S
Zr1003     O1030   2.436       .  S
Zr1003     O1018   2.450       .  S
Zr1003     O1009   2.408       .  S
Zr1003     O1010   2.410       .  S
Zr1003     O1011   2.381       .  S
Zr1003     O1012   2.386       .  S
Zr1004     O1023   2.435       .  S
Zr1004     O1016   2.437       .  S
Zr1004     O1017   2.416       .  S
Zr1004     O1010   2.395       .  S
Zr1004     O1011   2.394       .  S
Zr1005     O1007   2.435       .  S
Zr1005     O1029   2.435       .  S
Zr1005     O1031   2.425       .  S
Zr1005     O1009   2.391       .  S
Zr1005     O1012   2.395       .  S
Zr1006     O1032   2.436       .  S
Zr1006     O1033   2.436       .  S
Zr1006     O1008   2.439       .  S
Zr1006     O1009   2.393       .  S
Zr1006     O1010   2.381       .  S
O1007      H1044   0.990       .  S
O1008      H1039   0.990   1_565  S
O1008      H1053   0.990       .  S
O1010      H1036   0.965       .  S
O1011     Zr1021   2.384       .  S
O1012     Zr1021   2.381       .  S
O1012      H1037   0.966       .  S
C1013      C2811   1.475       .  S
C1014      C3115   1.470       .  S
C1015      C2904   1.466       .  S
O1016      H1052   0.990       .  S
O1017      C1019   1.281       .  A
O1018      C1019   1.284       .  A
C1019      C3163   1.466       .  S
O1020     Zr1021   2.439       .  S
O1020      H1049   0.990       .  S
Zr1021     O1024   2.439       .  S
Zr1021     O1025   2.440       .  S
Zr1021     O1026   2.398       .  S
O1022      C1027   1.287       .  A
O1023      H1040   0.990       .  S
O1023      H1055   0.990       .  S
O1024      H1041   0.990       .  S
O1025      H1045   0.990       .  S
O1025      H1054   0.990       .  S
O1026      C1027   1.276       .  A
C1027      C2795   1.469       .  S
O1028      H1047   0.991       .  S
O1028      H1051   0.990       .  S
O1029      H1043   0.990       .  S
O1029      H1050   0.990       .  S
O1030      C1034   1.284       .  A
O1031      C1034   1.283       .  A
O1032      H1042   0.990       .  S
O1033      H1046   0.990       .  S
C1034      C2763   1.470       .  S
Zr1057     O1058   2.443       .  S
Zr1057     O1059   2.457       .  S
Zr1057     O1060   2.469       .  S
Zr1057     O1063   2.464       .  S
Zr1057     O1065   2.389       .  S
Zr1057     O1066   2.390       .  S
Zr1057     O1067   2.418       .  S
Zr1057     O1068   2.408       .  S
O1058      H1114   0.991       .  S
O1058      H1122   0.990       .  S
O1059      C1079   1.286       .  A
O1060      C1081   1.288       .  A
O1061     Zr1071   2.418       .  S
O1061      C1080   1.281       .  A
O1062     Zr1070   2.417       .  S
O1062      C1081   1.282       .  A
O1063      C1080   1.290       .  A
O1064     Zr1072   2.399       .  S
O1064      C1079   1.277       .  A
O1065     Zr1070   2.401       .  S
O1065     Zr1072   2.388       .  S
O1066     Zr1071   2.391       .  S
O1066     Zr1072   2.376       .  S
O1066      H1101   0.966       .  S
O1067     Zr1070   2.402       .  S
O1067     Zr1087   2.393       .  S
O1067      H1104   0.964       .  S
O1068     Zr1071   2.394       .  S
O1068     Zr1087   2.389       .  S
Zr1069     O1094   2.441       .  S
Zr1069     O1088   2.452       .  S
Zr1069     O1096   2.446       .  S
Zr1069     O1084   2.449       .  S
Zr1069     O1075   2.406       .  S
Zr1069     O1076   2.409       .  S
Zr1069     O1077   2.382       .  S
Zr1069     O1078   2.389       .  S
Zr1070     O1089   2.436       .  S
Zr1070     O1082   2.434       .  S
Zr1070     O1083   2.431       .  S
Zr1070     O1076   2.390       .  S
Zr1070     O1077   2.392       .  S
Zr1071     O1073   2.436       .  S
Zr1071     O1095   2.443       .  S
Zr1071     O1097   2.430       .  S
Zr1071     O1075   2.390       .  S
Zr1071     O1078   2.396       .  S
Zr1072     O1098   2.436       .  S
Zr1072     O1099   2.436       .  S
Zr1072     O1074   2.436       .  S
Zr1072     O1075   2.387       .  S
Zr1072     O1076   2.383       .  S
O1073      H1110   0.990       .  S
O1074      H1105   0.991       .  S
O1074      H1119   0.990       .  S
O1076      H1102   0.965       .  S
O1077     Zr1087   2.384       .  S
O1078     Zr1087   2.379       .  S
O1078      H1103   0.966       .  S
C1079      C2680   1.470   1_545  S
C1080      C2712   1.474       .  S
C1081      C3291   1.478       .  S
O1082      H1118   0.990       .  S
O1083      C1085   1.283       .  A
O1084      C1085   1.286       .  A
C1085      C2731   1.473       .  S
O1086     Zr1087   2.436       .  S
O1086      H1115   0.990       .  S
Zr1087     O1090   2.435       .  S
Zr1087     O1091   2.440       .  S
Zr1087     O1092   2.410       .  S
O1088      C1093   1.286       .  A
O1089      H1106   0.990       .  S
O1089      H1121   0.990       .  S
O1090      H1107   0.990       .  S
O1091      H1111   0.990       .  S
O1091      H1120   0.990       .  S
O1092      C1093   1.278       .  A
C1093      C2699   1.472       .  S
O1094      H1113   0.990       .  S
O1094      H1117   0.991       .  S
O1095      H1109   0.989       .  S
O1095      H1116   0.990       .  S
O1096      C1100   1.285       .  A
O1097      C1100   1.283       .  A
O1098      H1108   0.990       .  S
O1099      H1112   0.990       .  S
C1100      C2744   1.472       .  S
Zr1123     O1124   2.443       .  S
Zr1123     O1125   2.450       .  S
Zr1123     O1126   2.446       .  S
Zr1123     O1129   2.461       .  S
Zr1123     O1131   2.388       .  S
Zr1123     O1132   2.386       .  S
Zr1123     O1133   2.418       .  S
Zr1123     O1134   2.401       .  S
O1124      H1180   0.990       .  S
O1124      H1188   0.990       .  S
O1125      C1145   1.285       .  A
O1126      C1147   1.285       .  A
O1127     Zr1137   2.421       .  S
O1127      C1146   1.283       .  A
O1128     Zr1136   2.423       .  S
O1128      C1147   1.282       .  A
O1129      C1146   1.288       .  A
O1130     Zr1138   2.404       .  S
O1130      C1145   1.277       .  A
O1131     Zr1136   2.401       .  S
O1131     Zr1138   2.380       .  S
O1132     Zr1137   2.388       .  S
O1132     Zr1138   2.381       .  S
O1132      H1167   0.966       .  S
O1133     Zr1136   2.404       .  S
O1133     Zr1153   2.397       .  S
O1133      H1170   0.964       .  S
O1134     Zr1137   2.387       .  S
O1134     Zr1153   2.387       .  S
Zr1135     O1160   2.442       .  S
Zr1135     O1154   2.455       .  S
Zr1135     O1162   2.437       .  S
Zr1135     O1150   2.441       .  S
Zr1135     O1141   2.406       .  S
Zr1135     O1142   2.408       .  S
Zr1135     O1143   2.379       .  S
Zr1135     O1144   2.385       .  S
Zr1136     O1155   2.438       .  S
Zr1136     O1148   2.435       .  S
Zr1136     O1149   2.444       .  S
Zr1136     O1142   2.393       .  S
Zr1136     O1143   2.389       .  S
Zr1137     O1139   2.436       .  S
Zr1137     O1161   2.437       .  S
Zr1137     O1163   2.414       .  S
Zr1137     O1141   2.393       .  S
Zr1137     O1144   2.394       .  S
Zr1138     O1164   2.435       .  S
Zr1138     O1165   2.436       .  S
Zr1138     O1140   2.436       .  S
Zr1138     O1141   2.389       .  S
Zr1138     O1142   2.391       .  S
O1139      H1176   0.990       .  S
O1140      H1171   0.990       .  S
O1140      H1185   0.990       .  S
O1142      H1168   0.965       .  S
O1143     Zr1153   2.380       .  S
O1144     Zr1153   2.380       .  S
O1144      H1169   0.966       .  S
C1145      C2696   1.470       .  S
C1146      C2632   1.477       .  S
C1147      C3243   1.469       .  S
O1148      H1184   0.990       .  S
O1149      C1151   1.285       .  A
O1150      C1151   1.285       .  A
C1151      C2651   1.478       .  S
O1152     Zr1153   2.439       .  S
O1152      H1181   0.990       .  S
Zr1153     O1156   2.437       .  S
Zr1153     O1157   2.440       .  S
Zr1153     O1158   2.407       .  S
O1154      C1159   1.287       .  A
O1155      H1172   0.990       .  S
O1155      H1187   0.990       .  S
O1156      H1173   0.990       .  S
O1157      H1177   0.990       .  S
O1157      H1186   0.990       .  S
O1158      C1159   1.279       .  A
C1159      C2683   1.472       .  S
O1160      H1179   0.990       .  S
O1160      H1183   0.991       .  S
O1161      H1175   0.990       .  S
O1161      H1182   0.990       .  S
O1162      C1166   1.283       .  A
O1163      C1166   1.280       .  A
O1164      H1174   0.990       .  S
O1165      H1178   0.990       .  S
C1166      C2667   1.461       .  S
Zr1189     O1190   2.443       .  S
Zr1189     O1191   2.462       .  S
Zr1189     O1192   2.461       .  S
Zr1189     O1195   2.451       .  S
Zr1189     O1197   2.386       .  S
Zr1189     O1198   2.388       .  S
Zr1189     O1199   2.417       .  S
Zr1189     O1200   2.406       .  S
O1190      H1246   0.990       .  S
O1190      H1254   0.991       .  S
O1191      C1211   1.287       .  A
O1192      C1213   1.287       .  A
O1193     Zr1203   2.419       .  S
O1193      C1212   1.283       .  A
O1194     Zr1202   2.424       .  S
O1194      C1213   1.282       .  A
O1195      C1212   1.286       .  A
O1196     Zr1204   2.401       .  S
O1196      C1211   1.278       .  A
O1197     Zr1202   2.403       .  S
O1197     Zr1204   2.388       .  S
O1198     Zr1203   2.390       .  S
O1198     Zr1204   2.376       .  S
O1198      H1233   0.966       .  S
O1199     Zr1202   2.399       .  S
O1199     Zr1219   2.392       .  S
O1199      H1236   0.964       .  S
O1200     Zr1203   2.392       .  S
O1200     Zr1219   2.391       .  S
Zr1201     O1226   2.441       .  S
Zr1201     O1220   2.449       .  S
Zr1201     O1228   2.450       .  S
Zr1201     O1216   2.450       .  S
Zr1201     O1207   2.403       .  S
Zr1201     O1208   2.411       .  S
Zr1201     O1209   2.382       .  S
Zr1201     O1210   2.386       .  S
Zr1202     O1221   2.438       .  S
Zr1202     O1214   2.435       .  S
Zr1202     O1215   2.433       .  S
Zr1202     O1208   2.397       .  S
Zr1202     O1209   2.395       .  S
Zr1203     O1205   2.435       .  S
Zr1203     O1227   2.439       .  S
Zr1203     O1229   2.428       .  S
Zr1203     O1207   2.393       .  S
Zr1203     O1210   2.391       .  S
Zr1204     O1230   2.436       .  S
Zr1204     O1231   2.434       .  S
Zr1204     O1206   2.436       .  S
Zr1204     O1207   2.391       .  S
Zr1204     O1208   2.385       .  S
O1205      H1242   0.990       .  S
O1206      H1237   0.990       .  S
O1206      H1251   0.990       .  S
O1208      H1234   0.965       .  S
O1209     Zr1219   2.380       .  S
O1210     Zr1219   2.379       .  S
O1210      H1235   0.966       .  S
C1211      C2568   1.474       .  S
C1212      C2603   1.472       .  S
C1213      C3176   1.473       .  S
O1214      H1250   0.990       .  S
O1215      C1217   1.284       .  A
O1216      C1217   1.287       .  A
C1217      C2616   1.473       .  S
O1218     Zr1219   2.439       .  S
O1218      H1247   0.990       .  S
Zr1219     O1222   2.438       .  S
Zr1219     O1223   2.438       .  S
Zr1219     O1224   2.420       .  S
O1220      C1225   1.286       .  A
O1221      H1238   0.990       .  S
O1221      H1253   0.990       .  S
O1222      H1239   0.990       .  S
O1223      H1243   0.990       .  S
O1223      H1252   0.990       .  S
O1224      C1225   1.281       .  A
C1225      C2587   1.474       .  S
O1226      H1245   0.990       .  S
O1226      H1249   0.990       .  S
O1227      H1241   0.990       .  S
O1227      H1248   0.990       .  S
O1228      C1232   1.286       .  A
O1229      C1232   1.283       .  A
O1230      H1240   0.990       .  S
O1231      H1244   0.990       .  S
C1232      C2747   1.474       .  S
Zr1255     O1256   2.441       .  S
Zr1255     O1257   2.450       .  S
Zr1255     O1258   2.459       .  S
Zr1255     O1261   2.452       .  S
Zr1255     O1263   2.384       .  S
Zr1255     O1264   2.392       .  S
Zr1255     O1265   2.414       .  S
Zr1255     O1266   2.396       .  S
O1256      H1312   0.990       .  S
O1256      H1320   0.991       .  S
O1257      C1277   1.286       .  A
O1258      C1279   1.286       .  A
O1259     Zr1269   2.420       .  S
O1259      C1278   1.283       .  A
O1260     Zr1268   2.430       .  S
O1260      C1279   1.284       .  A
O1261      C1278   1.286       .  A
O1262     Zr1270   2.408       .  S
O1262      C1277   1.278       .  A
O1263     Zr1268   2.397       .  S
O1263     Zr1270   2.385       .  S
O1264     Zr1269   2.392       .  S
O1264     Zr1270   2.381       .  S
O1264      H1299   0.966       .  S
O1265     Zr1268   2.401       .  S
O1265     Zr1285   2.394       .  S
O1265      H1302   0.964       .  S
O1266     Zr1269   2.385       .  S
O1266     Zr1285   2.378       .  S
Zr1267     O1292   2.442       .  S
Zr1267     O1286   2.451       .  S
Zr1267     O1294   2.447       .  S
Zr1267     O1282   2.439       .  S
Zr1267     O1273   2.403       .  S
Zr1267     O1274   2.410       .  S
Zr1267     O1275   2.380       .  S
Zr1267     O1276   2.380       .  S
Zr1268     O1287   2.436       .  S
Zr1268     O1280   2.435       .  S
Zr1268     O1281   2.431       .  S
Zr1268     O1274   2.401       .  S
Zr1268     O1275   2.395       .  S
Zr1269     O1271   2.435       .  S
Zr1269     O1293   2.438       .  S
Zr1269     O1295   2.412       .  S
Zr1269     O1273   2.396       .  S
Zr1269     O1276   2.393       .  S
Zr1270     O1296   2.437       .  S
Zr1270     O1297   2.436       .  S
Zr1270     O1272   2.438       .  S
Zr1270     O1273   2.394       .  S
Zr1270     O1274   2.388       .  S
O1271      H1308   0.990       .  S
O1272      H1303   0.990       .  S
O1272      H1317   0.990       .  S
O1274      H1300   0.965       .  S
O1275     Zr1285   2.378       .  S
O1276     Zr1285   2.379       .  S
O1276      H1301   0.966       .  S
C1277      C2584   1.471       .  S
C1278      C2536   1.473       .  S
C1279      C3144   1.478       .  S
O1280      H1316   0.990       .  S
O1281      C1283   1.284       .  A
O1282      C1283   1.285       .  A
C1283      C2555   1.469       .  S
O1284     Zr1285   2.438       .  S
O1284      H1313   0.990       .  S
Zr1285     O1288   2.437       .  S
Zr1285     O1289   2.440       .  S
Zr1285     O1290   2.401       .  S
O1286      C1291   1.285       .  A
O1287      H1304   0.990       .  S
O1287      H1319   0.990       .  S
O1288      H1305   0.990       .  S
O1289      H1309   0.990       .  S
O1289      H1318   0.990       .  S
O1290      C1291   1.278       .  A
C1291      C2571   1.471       .  S
O1292      H1311   0.990       .  S
O1292      H1315   0.990       .  S
O1293      H1307   0.990       .  S
O1293      H1314   0.990       .  S
O1294      C1298   1.285       .  A
O1295      C1298   1.280       .  A
O1296      H1306   0.990       .  S
O1297      H1310   0.990       .  S
C1298      C2664   1.467       .  S
Zr1321     O1322   2.443       .  S
Zr1321     O1323   2.457       .  S
Zr1321     O1324   2.448       .  S
Zr1321     O1327   2.459       .  S
Zr1321     O1329   2.389       .  S
Zr1321     O1330   2.392       .  S
Zr1321     O1331   2.421       .  S
Zr1321     O1332   2.399       .  S
O1322      H1378   0.990       .  S
O1322      H1386   0.991       .  S
O1323      C1343   1.286       .  A
O1324      C1345   1.285       .  A
O1325     Zr1335   2.425       .  S
O1325      C1344   1.283       .  A
O1326     Zr1334   2.427       .  S
O1326      C1345   1.283       .  A
O1327      C1344   1.288       .  A
O1328     Zr1336   2.402       .  S
O1328      C1343   1.278       .  A
O1329     Zr1334   2.396       .  S
O1329     Zr1336   2.384       .  S
O1330     Zr1335   2.393       .  S
O1330     Zr1336   2.381       .  S
O1330      H1365   0.966       .  S
O1331     Zr1334   2.402       .  S
O1331     Zr1351   2.386       .  S
O1331      H1368   0.963       .  S
O1332     Zr1335   2.385       .  S
O1332     Zr1351   2.378       .  S
Zr1333     O1358   2.443       .  S
Zr1333     O1352   2.455       .  S
Zr1333     O1360   2.440       .  S
Zr1333     O1348   2.443       .  S
Zr1333     O1339   2.405       .  S
Zr1333     O1340   2.412       .  S
Zr1333     O1341   2.383       .  S
Zr1333     O1342   2.385       .  S
Zr1334     O1353   2.436       .  S
Zr1334     O1346   2.436       .  S
Zr1334     O1347   2.437       .  S
Zr1334     O1340   2.396       .  S
Zr1334     O1341   2.395       .  S
Zr1335     O1337   2.434       .  S
Zr1335     O1359   2.436       .  S
Zr1335     O1361   2.424       .  S
Zr1335     O1339   2.394       .  S
Zr1335     O1342   2.395       .  S
Zr1336     O1362   2.436       .  S
Zr1336     O1363   2.437       .  S
Zr1336     O1338   2.438       .  S
Zr1336     O1339   2.393       .  S
Zr1336     O1340   2.387       .  S
O1337      H1374   0.990       .  S
O1338      H1369   0.990       .  S
O1338      H1383   0.990       .  S
O1340      H1366   0.965       .  S
O1341     Zr1351   2.382       .  S
O1342     Zr1351   2.379       .  S
O1342      H1367   0.966       .  S
C1343      C2472   1.474       .  S
C1344      C2507   1.472       .  S
C1345      C3563   1.469       .  S
O1346      H1382   0.990       .  S
O1347      C1349   1.286       .  A
O1348      C1349   1.285       .  A
C1349      C2728   1.473       .  S
O1350     Zr1351   2.438       .  S
O1350      H1379   0.990       .  S
Zr1351     O1354   2.437       .  S
Zr1351     O1355   2.439       .  S
Zr1351     O1356   2.394       .  S
O1352      C1357   1.286       .  A
O1353      H1370   0.990       .  S
O1353      H1385   0.990       .  S
O1354      H1371   0.990       .  S
O1355      H1375   0.990       .  S
O1355      H1384   0.990       .  S
O1356      C1357   1.275       .  A
C1357      C2491   1.468       .  S
O1358      H1377   0.991       .  S
O1358      H1381   0.991       .  S
O1359      H1373   0.990       .  S
O1359      H1380   0.990       .  S
O1360      C1364   1.283       .  A
O1361      C1364   1.282       .  A
O1362      H1372   0.990       .  S
O1363      H1376   0.990       .  S
C1364      C2520   1.469       .  S
Zr1387     O1388   2.441       .  S
Zr1387     O1389   2.450       .  S
Zr1387     O1390   2.461       .  S
Zr1387     O1393   2.460       .  S
Zr1387     O1395   2.388       .  S
Zr1387     O1396   2.396       .  S
Zr1387     O1397   2.419       .  S
Zr1387     O1398   2.396       .  S
O1388      H1444   0.990       .  S
O1388      H1452   0.990       .  S
O1389      C1409   1.285       .  A
O1390      C1411   1.287       .  A
O1391     Zr1401   2.418       .  S
O1391      C1410   1.281       .  A
O1392     Zr1400   2.425       .  S
O1392      C1411   1.284       .  A
O1393      C1410   1.288       .  A
O1394     Zr1402   2.412       .  S
O1394      C1409   1.279       .  A
O1395     Zr1400   2.395       .  S
O1395     Zr1402   2.382       .  S
O1396     Zr1401   2.395       .  S
O1396     Zr1402   2.381       .  S
O1396      H1431   0.965       .  S
O1397     Zr1400   2.400       .  S
O1397     Zr1417   2.389       .  S
O1397      H1434   0.963       .  S
O1398     Zr1401   2.387       .  S
O1398     Zr1417   2.380       .  S
Zr1399     O1424   2.442       .  S
Zr1399     O1418   2.467       .  S
Zr1399     O1426   2.460       .  S
Zr1399     O1414   2.451       .  S
Zr1399     O1405   2.414       .  S
Zr1399     O1406   2.420       .  S
Zr1399     O1407   2.388       .  S
Zr1399     O1408   2.386       .  S
Zr1400     O1419   2.438       .  S
Zr1400     O1412   2.436       .  S
Zr1400     O1413   2.435       .  S
Zr1400     O1406   2.393       .  S
Zr1400     O1407   2.398       .  S
Zr1401     O1403   2.438       .  S
Zr1401     O1425   2.440       .  S
Zr1401     O1427   2.427       .  S
Zr1401     O1405   2.393       .  S
Zr1401     O1408   2.395       .  S
Zr1402     O1428   2.433       .  S
Zr1402     O1429   2.436       .  S
Zr1402     O1404   2.438       .  S
Zr1402     O1405   2.399       .  S
Zr1402     O1406   2.384       .  S
O1403      H1440   0.990       .  S
O1404      H1435   0.990       .  S
O1404      H1449   0.990       .  S
O1406      H1432   0.965       .  S
O1407     Zr1417   2.383       .  S
O1408     Zr1417   2.386       .  S
O1408      H1433   0.966       .  S
C1409      C2488   1.472       .  S
C1410      C2443   1.471       .  S
C1411      C3496   1.477       .  S
O1412      H1448   0.990       .  S
O1413      C1415   1.284       .  A
O1414      C1415   1.286       .  A
C1415      C2648   1.472       .  S
O1416     Zr1417   2.439       .  S
O1416      H1445   0.990       .  S
Zr1417     O1420   2.437       .  S
Zr1417     O1421   2.439       .  S
Zr1417     O1422   2.396       .  S
O1418      C1423   1.288       .  A
O1419      H1436   0.990       .  S
O1419      H1451   0.991       .  S
O1420      H1437   0.990       .  S
O1421      H1441   0.990       .  S
O1421      H1450   0.990       .  S
O1422      C1423   1.277       .  A
C1423      C2475   1.475       .  S
O1424      H1443   0.990       .  S
O1424      H1447   0.990       .  S
O1425      H1439   0.990       .  S
O1425      H1446   0.989       .  S
O1426      C1430   1.287       .  A
O1427      C1430   1.281       .  A
O1428      H1438   0.989       .  S
O1429      H1442   0.990       .  S
C1430      C2456   1.477       .  S
Zr1453     O1454   2.442       .  S
Zr1453     O1455   2.463       .  S
Zr1453     O1456   2.450       .  S
Zr1453     O1459   2.466       .  S
Zr1453     O1461   2.389       .  S
Zr1453     O1462   2.384       .  S
Zr1453     O1463   2.421       .  S
Zr1453     O1464   2.400       .  S
O1454      H1510   0.990       .  S
O1454      H1518   0.991       .  S
O1455      C1475   1.288       .  A
O1456      C1477   1.286       .  A
O1457     Zr1467   2.419       .  S
O1457      C1476   1.282       .  A
O1458     Zr1466   2.419       .  S
O1458      C1477   1.282       .  A
O1459      C1476   1.289       .  A
O1460     Zr1468   2.404       .  S
O1460      C1475   1.278       .  A
O1461     Zr1466   2.400       .  S
O1461     Zr1468   2.379       .  S
O1462     Zr1467   2.393       .  S
O1462     Zr1468   2.382       .  S
O1462      H1497   0.965       .  S
O1463     Zr1466   2.405       .  S
O1463     Zr1483   2.390       .  S
O1463      H1500   0.963       .  S
O1464     Zr1467   2.385       .  S
O1464     Zr1483   2.388       .  S
Zr1465     O1490   2.442       .  S
Zr1465     O1484   2.451       .  S
Zr1465     O1492   2.447       .  S
Zr1465     O1480   2.448       .  S
Zr1465     O1471   2.403       .  S
Zr1465     O1472   2.406       .  S
Zr1465     O1473   2.379       .  S
Zr1465     O1474   2.385       .  S
Zr1466     O1485   2.437       .  S
Zr1466     O1478   2.434       .  S
Zr1466     O1479   2.445       .  S
Zr1466     O1472   2.390       .  S
Zr1466     O1473   2.389       .  S
Zr1467     O1469   2.436       .  S
Zr1467     O1491   2.439       .  S
Zr1467     O1493   2.412       .  S
Zr1467     O1471   2.395       .  S
Zr1467     O1474   2.394       .  S
Zr1468     O1494   2.435       .  S
Zr1468     O1495   2.435       .  S
Zr1468     O1470   2.438       .  S
Zr1468     O1471   2.390       .  S
Zr1468     O1472   2.389       .  S
O1469      H1506   0.990       .  S
O1470      H1501   0.990       .  S
O1470      H1515   0.990       .  S
O1472      H1498   0.965       .  S
O1473     Zr1483   2.380       .  S
O1474     Zr1483   2.382       .  S
O1474      H1499   0.966       .  S
C1475      C2392   1.474   1_545  S
C1476      C2424   1.477       .  S
C1477      C3416   1.467       .  S
O1478      H1514   0.990       .  S
O1479      C1481   1.286       .  A
O1480      C1481   1.287       .  A
C1481      C2619   1.481       .  S
O1482     Zr1483   2.439       .  S
O1482      H1511   0.990       .  S
Zr1483     O1486   2.437       .  S
Zr1483     O1487   2.440       .  S
Zr1483     O1488   2.408       .  S
O1484      C1489   1.286       .  A
O1485      H1502   0.990       .  S
O1485      H1517   0.990       .  S
O1486      H1503   0.990       .  S
O1487      H1507   0.990       .  S
O1487      H1516   0.990       .  S
O1488      C1489   1.279       .  A
C1489      C2411   1.470       .  S
O1490      H1509   0.990       .  S
O1490      H1513   0.991       .  S
O1491      H1505   0.990       .  S
O1491      H1512   0.989       .  S
O1492      C1496   1.285       .  A
O1493      C1496   1.280       .  A
O1494      H1504   0.990       .  S
O1495      H1508   0.990       .  S
C1496      C2523   1.467       .  S
Zr1519     O1520   2.442       .  S
Zr1519     O1521   2.449       .  S
Zr1519     O1522   2.457       .  S
Zr1519     O1525   2.448       .  S
Zr1519     O1527   2.381       .  S
Zr1519     O1528   2.389       .  S
Zr1519     O1529   2.410       .  S
Zr1519     O1530   2.400       .  S
O1520      H1576   0.990       .  S
O1520      H1584   0.991       .  S
O1521      C1541   1.285       .  A
O1522      C1543   1.286       .  A
O1523     Zr1533   2.419       .  S
O1523      C1542   1.283       .  A
O1524     Zr1532   2.420       .  S
O1524      C1543   1.282       .  A
O1525      C1542   1.286       .  A
O1526     Zr1534   2.400       .  S
O1526      C1541   1.276       .  A
O1527     Zr1532   2.394       .  S
O1527     Zr1534   2.384       .  S
O1528     Zr1533   2.393       .  S
O1528     Zr1534   2.378       .  S
O1528      H1563   0.966       .  S
O1529     Zr1532   2.394       .  S
O1529     Zr1549   2.385       .  S
O1529      H1566   0.964       .  S
O1530     Zr1533   2.390       .  S
O1530     Zr1549   2.386       .  S
Zr1531     O1556   2.442       .  S
Zr1531     O1550   2.463       .  S
Zr1531     O1558   2.455       .  S
Zr1531     O1546   2.451       .  S
Zr1531     O1537   2.407       .  S
Zr1531     O1538   2.413       .  S
Zr1531     O1539   2.383       .  S
Zr1531     O1540   2.382       .  S
Zr1532     O1551   2.436       .  S
Zr1532     O1544   2.436       .  S
Zr1532     O1545   2.419       .  S
Zr1532     O1538   2.398       .  S
Zr1532     O1539   2.395       .  S
Zr1533     O1535   2.435       .  S
Zr1533     O1557   2.436       .  S
Zr1533     O1559   2.428       .  S
Zr1533     O1537   2.395       .  S
Zr1533     O1540   2.389       .  S
Zr1534     O1560   2.436       .  S
Zr1534     O1561   2.437       .  S
Zr1534     O1536   2.438       .  S
Zr1534     O1537   2.395       .  S
Zr1534     O1538   2.383       .  S
O1535      H1572   0.990       .  S
O1536      H1567   0.990       .  S
O1536      H1581   0.990       .  S
O1538      H1564   0.965       .  S
O1539     Zr1549   2.377       .  S
O1540     Zr1549   2.379       .  S
O1540      H1565   0.966       .  S
C1541      C2408   1.468       .  S
C1542      C2376   1.468       .  S
C1543      C3368   1.471       .  S
O1544      H1580   0.990       .  S
O1545      C1547   1.281       .  A
O1546      C1547   1.288       .  A
C1547      C2552   1.466       .  S
O1548     Zr1549   2.437       .  S
O1548      H1577   0.990       .  S
Zr1549     O1552   2.438       .  S
Zr1549     O1553   2.437       .  S
Zr1549     O1554   2.403       .  S
O1550      C1555   1.289       .  A
O1551      H1568   0.990       .  S
O1551      H1583   0.990       .  S
O1552      H1569   0.990       .  S
O1553      H1573   0.990       .  S
O1553      H1582   0.990       .  S
O1554      C1555   1.278       .  A
C1555      C2395   1.473       .  S
O1556      H1575   0.990       .  S
O1556      H1579   0.991       .  S
O1557      H1571   0.990       .  S
O1557      H1578   0.990       .  S
O1558      C1562   1.286       .  A
O1559      C1562   1.283       .  A
O1560      H1570   0.990       .  S
O1561      H1574   0.990       .  S
C1562      C2459   1.477       .  S
Zr1585     O1586   2.441       .  S
Zr1585     O1587   2.449       .  S
Zr1585     O1588   2.455       .  S
Zr1585     O1591   2.459       .  S
Zr1585     O1593   2.384       .  S
Zr1585     O1594   2.394       .  S
Zr1585     O1595   2.414       .  S
Zr1585     O1596   2.393       .  S
O1586      H1642   0.990       .  S
O1586      H1650   0.991       .  S
O1587      C1607   1.286       .  A
O1588      C1609   1.286       .  A
O1589     Zr1599   2.421       .  S
O1589      C1608   1.283       .  A
O1590     Zr1598   2.409       .  S
O1590      C1609   1.281       .  A
O1591      C1608   1.289       .  A
O1592     Zr1600   2.414       .  S
O1592      C1607   1.279       .  A
O1593     Zr1598   2.394       .  S
O1593     Zr1600   2.378       .  S
O1594     Zr1599   2.395       .  S
O1594     Zr1600   2.383       .  S
O1594      H1629   0.966       .  S
O1595     Zr1598   2.402       .  S
O1595     Zr1615   2.385   1_545  S
O1595      H1632   0.964       .  S
O1596     Zr1599   2.384       .  S
O1596     Zr1615   2.377   1_545  S
Zr1597     O1622   2.443       .  S
Zr1597     O1616   2.469       .  S
Zr1597     O1624   2.438       .  S
Zr1597     O1612   2.446       .  S
Zr1597     O1603   2.411   1_565  S
Zr1597     O1604   2.412   1_565  S
Zr1597     O1605   2.376       .  S
Zr1597     O1606   2.383       .  S
Zr1598     O1617   2.435       .  S
Zr1598     O1610   2.437       .  S
Zr1598     O1611   2.427       .  S
Zr1598     O1604   2.390       .  S
Zr1598     O1605   2.392   1_545  S
Zr1599     O1601   2.435       .  S
Zr1599     O1623   2.436       .  S
Zr1599     O1625   2.414       .  S
Zr1599     O1603   2.391       .  S
Zr1599     O1606   2.393   1_545  S
Zr1600     O1626   2.436       .  S
Zr1600     O1627   2.436       .  S
Zr1600     O1602   2.439       .  S
Zr1600     O1603   2.397       .  S
Zr1600     O1604   2.392       .  S
O1601      H1638   0.990       .  S
O1602      H1633   0.990       .  S
O1602      H1647   0.990       .  S
O1604      H1630   0.965       .  S
O1605     Zr1615   2.385       .  S
O1606     Zr1615   2.380       .  S
O1606      H1631   0.966       .  S
C1607      C2328   1.474       .  S
C1608      C2427   1.473       .  S
C1609      C3064   1.468       .  S
O1610      H1646   0.990       .  S
O1611      C1613   1.282   1_545  A
O1612      C1613   1.286       .  A
C1613      C2347   1.470       .  S
O1614     Zr1615   2.437       .  S
O1614      H1643   0.991       .  S
Zr1615     O1618   2.436       .  S
Zr1615     O1619   2.441       .  S
Zr1615     O1620   2.390       .  S
O1616      C1621   1.289       .  A
O1617      H1634   0.990   1_545  S
O1617      H1649   0.990       .  S
O1618      H1635   0.990       .  S
O1619      H1639   0.990       .  S
O1619      H1648   0.990       .  S
O1620      C1621   1.276       .  A
C1621      C2312   1.473       .  S
O1622      H1641   0.990       .  S
O1622      H1645   0.991       .  S
O1623      H1637   0.990       .  S
O1623      H1644   0.990       .  S
O1624      C1628   1.282       .  A
O1625      C1628   1.280   1_545  A
O1626      H1636   0.990       .  S
O1627      H1640   0.990       .  S
C1628      C2360   1.460       .  S
Zr1651     O1652   2.443       .  S
Zr1651     O1653   2.460       .  S
Zr1651     O1654   2.457       .  S
Zr1651     O1657   2.457       .  S
Zr1651     O1659   2.389       .  S
Zr1651     O1660   2.390       .  S
Zr1651     O1661   2.421       .  S
Zr1651     O1662   2.404       .  S
O1652      H1708   0.990       .  S
O1652      H1716   0.991       .  S
O1653      C1673   1.286       .  A
O1654      C1675   1.286       .  A
O1655     Zr1665   2.420       .  S
O1655      C1674   1.282       .  A
O1656     Zr1664   2.425       .  S
O1656      C1675   1.283       .  A
O1657      C1674   1.288       .  A
O1658     Zr1666   2.394       .  S
O1658      C1673   1.275       .  A
O1659     Zr1664   2.402       .  S
O1659     Zr1666   2.385       .  S
O1660     Zr1665   2.396       .  S
O1660     Zr1666   2.380       .  S
O1660      H1695   0.966       .  S
O1661     Zr1664   2.406       .  S
O1661     Zr1681   2.391       .  S
O1661      H1698   0.964       .  S
O1662     Zr1665   2.389       .  S
O1662     Zr1681   2.388       .  S
Zr1663     O1688   2.442       .  S
Zr1663     O1682   2.445       .  S
Zr1663     O1690   2.444       .  S
Zr1663     O1678   2.436       .  S
Zr1663     O1669   2.400       .  S
Zr1663     O1670   2.407       .  S
Zr1663     O1671   2.382       .  S
Zr1663     O1672   2.384       .  S
Zr1664     O1683   2.438       .  S
Zr1664     O1676   2.434       .  S
Zr1664     O1677   2.446       .  S
Zr1664     O1670   2.394       .  S
Zr1664     O1671   2.394       .  S
Zr1665     O1667   2.435       .  S
Zr1665     O1689   2.435       .  S
Zr1665     O1691   2.429       .  S
Zr1665     O1669   2.396       .  S
Zr1665     O1672   2.393       .  S
Zr1666     O1692   2.436       .  S
Zr1666     O1693   2.435       .  S
Zr1666     O1668   2.438       .  S
Zr1666     O1669   2.388       .  S
Zr1666     O1670   2.389       .  S
O1667      H1704   0.990       .  S
O1668      H1699   0.990       .  S
O1668      H1713   0.990       .  S
O1670      H1696   0.965       .  S
O1671     Zr1681   2.380       .  S
O1672     Zr1681   2.377       .  S
O1672      H1697   0.966       .  S
C1673      C2315   1.472       .  S
C1674      C2379   1.473       .  S
C1675      C3016   1.474       .  S
O1676      H1712   0.990       .  S
O1677      C1679   1.286       .  A
O1678      C1679   1.284       .  A
C1679      C2283   1.477       .  S
O1680     Zr1681   2.436       .  S
O1680      H1709   0.990       .  S
Zr1681     O1684   2.436       .  S
Zr1681     O1685   2.438       .  S
Zr1681     O1686   2.414       .  S
O1682      C1687   1.285       .  A
O1683      H1700   0.990       .  S
O1683      H1715   0.990       .  S
O1684      H1701   0.990       .  S
O1685      H1705   0.990       .  S
O1685      H1714   0.990       .  S
O1686      C1687   1.280       .  A
C1687      C2331   1.472       .  S
O1688      H1707   0.990       .  S
O1688      H1711   0.991       .  S
O1689      H1703   0.989       .  S
O1689      H1710   0.990       .  S
O1690      C1694   1.285       .  A
O1691      C1694   1.283       .  A
O1692      H1702   0.990       .  S
O1693      H1706   0.990       .  S
C1694      C2299   1.473       .  S
Zr1717     O1718   2.442       .  S
Zr1717     O1719   2.456       .  S
Zr1717     O1720   2.445       .  S
Zr1717     O1723   2.446       .  S
Zr1717     O1725   2.383       .  S
Zr1717     O1726   2.386       .  S
Zr1717     O1727   2.416       .  S
Zr1717     O1728   2.403       .  S
O1718      H1774   0.990       .  S
O1718      H1782   0.991       .  S
O1719      C1739   1.287       .  A
O1720      C1741   1.284       .  A
O1721     Zr1731   2.421       .  S
O1721      C1740   1.282       .  A
O1722     Zr1730   2.425       .  S
O1722      C1741   1.282       .  A
O1723      C1740   1.285       .  A
O1724     Zr1732   2.404       .  S
O1724      C1739   1.278       .  A
O1725     Zr1730   2.394       .  S
O1725     Zr1732   2.383       .  S
O1726     Zr1731   2.389       .  S
O1726     Zr1732   2.378       .  S
O1726      H1761   0.966       .  S
O1727     Zr1730   2.398       .  S
O1727     Zr1747   2.390       .  S
O1727      H1764   0.964       .  S
O1728     Zr1731   2.384       .  S
O1728     Zr1747   2.386       .  S
Zr1729     O1754   2.442       .  S
Zr1729     O1748   2.447       .  S
Zr1729     O1756   2.468       .  S
Zr1729     O1744   2.456       .  S
Zr1729     O1735   2.404       .  S
Zr1729     O1736   2.414       .  S
Zr1729     O1737   2.387       .  S
Zr1729     O1738   2.388       .  S
Zr1730     O1749   2.438       .  S
Zr1730     O1742   2.435       .  S
Zr1730     O1743   2.422       .  S
Zr1730     O1736   2.397       .  S
Zr1730     O1737   2.395       .  S
Zr1731     O1733   2.434       .  S
Zr1731     O1755   2.438       .  S
Zr1731     O1757   2.410       .  S
Zr1731     O1735   2.395       .  S
Zr1731     O1738   2.393       .  S
Zr1732     O1758   2.434       .  S
Zr1732     O1759   2.436       .  S
Zr1732     O1734   2.438       .  S
Zr1732     O1735   2.393       .  S
Zr1732     O1736   2.386       .  S
O1733      H1770   0.990       .  S
O1734      H1765   0.990       .  S
O1734      H1779   0.990       .  S
O1736      H1762   0.965       .  S
O1737     Zr1747   2.381       .  S
O1738     Zr1747   2.383       .  S
O1738      H1763   0.966       .  S
C1739      C2251   1.473       .  S
C1740      C2504   1.468       .  S
C1741      C2952   1.468       .  S
O1742      H1778   0.990       .  S
O1743      C1745   1.282       .  A
O1744      C1745   1.288       .  A
C1745      C2267   1.472       .  S
O1746     Zr1747   2.441       .  S
O1746      H1775   0.990       .  S
Zr1747     O1750   2.438       .  S
Zr1747     O1751   2.441       .  S
Zr1747     O1752   2.406       .  S
O1748      C1753   1.285       .  A
O1749      H1766   0.990       .  S
O1749      H1781   0.990       .  S
O1750      H1767   0.990       .  S
O1751      H1771   0.990       .  S
O1751      H1780   0.990       .  S
O1752      C1753   1.278       .  A
C1753      C2235   1.468       .  S
O1754      H1773   0.990       .  S
O1754      H1777   0.990       .  S
O1755      H1769   0.990       .  S
O1755      H1776   0.990       .  S
O1756      C1760   1.289       .  A
O1757      C1760   1.280       .  A
O1758      H1768   0.990       .  S
O1759      H1772   0.990       .  S
C1760      C2296   1.475       .  S
Zr1783     O1784   2.443       .  S
Zr1783     O1785   2.446       .  S
Zr1783     O1786   2.449       .  S
Zr1783     O1789   2.447       .  S
Zr1783     O1791   2.386       .  S
Zr1783     O1792   2.392       .  S
Zr1783     O1793   2.413       .  S
Zr1783     O1794   2.399       .  S
O1784      H1840   0.990       .  S
O1784      H1848   0.991       .  S
O1785      C1805   1.285       .  A
O1786      C1807   1.284       .  A
O1787     Zr1797   2.430       .  S
O1787      C1806   1.285       .  A
O1788     Zr1796   2.417       .  S
O1788      C1807   1.281       .  A
O1789      C1806   1.285       .  A
O1790     Zr1798   2.402       .  S
O1790      C1805   1.276       .  A
O1791     Zr1796   2.399       .  S
O1791     Zr1798   2.381       .  S
O1792     Zr1797   2.393       .  S
O1792     Zr1798   2.380       .  S
O1792      H1827   0.966       .  S
O1793     Zr1796   2.400       .  S
O1793     Zr1813   2.396       .  S
O1793      H1830   0.964       .  S
O1794     Zr1797   2.385       .  S
O1794     Zr1813   2.385       .  S
Zr1795     O1820   2.444       .  S
Zr1795     O1814   2.465   1_565  S
Zr1795     O1822   2.435       .  S
Zr1795     O1810   2.445       .  S
Zr1795     O1801   2.409       .  S
Zr1795     O1802   2.410       .  S
Zr1795     O1803   2.378       .  S
Zr1795     O1804   2.386       .  S
Zr1796     O1815   2.435       .  S
Zr1796     O1808   2.435       .  S
Zr1796     O1809   2.431       .  S
Zr1796     O1802   2.396       .  S
Zr1796     O1803   2.392       .  S
Zr1797     O1799   2.435       .  S
Zr1797     O1821   2.438       .  S
Zr1797     O1823   2.417       .  S
Zr1797     O1801   2.395       .  S
Zr1797     O1804   2.395       .  S
Zr1798     O1824   2.438       .  S
Zr1798     O1825   2.436       .  S
Zr1798     O1800   2.440       .  S
Zr1798     O1801   2.390       .  S
Zr1798     O1802   2.388       .  S
O1799      H1836   0.990       .  S
O1800      H1831   0.990       .  S
O1800      H1845   0.990       .  S
O1802      H1828   0.964       .  S
O1803     Zr1813   2.384       .  S
O1804     Zr1813   2.379       .  S
O1804      H1829   0.966       .  S
C1805      C2232   1.466       .  S
C1806      C2440   1.474       .  S
C1807      C2920   1.469       .  S
O1808      H1844   0.990       .  S
O1809      C1811   1.283       .  A
O1810      C1811   1.286       .  A
C1811      C2216   1.470       .  S
O1812     Zr1813   2.437       .  S
O1812      H1841   0.990       .  S
Zr1813     O1816   2.436       .  S
Zr1813     O1817   2.441       .  S
Zr1813     O1818   2.407   1_565  S
O1814      C1819   1.289       .  A
O1815      H1832   0.990       .  S
O1815      H1847   0.990       .  S
O1816      H1833   0.990       .  S
O1817      H1837   0.990       .  S
O1817      H1846   0.990       .  S
O1818      C1819   1.278       .  A
C1819      C2248   1.477       .  S
O1820      H1839   0.990       .  S
O1820      H1843   0.991       .  S
O1821      H1835   0.990       .  S
O1821      H1842   0.990       .  S
O1822      C1826   1.282       .  A
O1823      C1826   1.281       .  A
O1824      H1834   0.990       .  S
O1825      H1838   0.990       .  S
C1826      C2363   1.461       .  S
Zr1849     O1850   2.440       .  S
Zr1849     O1851   2.450       .  S
Zr1849     O1852   2.471       .  S
Zr1849     O1855   2.465       .  S
Zr1849     O1857   2.386       .  S
Zr1849     O1858   2.397       .  S
Zr1849     O1859   2.415       .  S
Zr1849     O1860   2.396       .  S
O1850      H1906   0.990       .  S
O1850      H1914   0.990       .  S
O1851      C1871   1.286       .  A
O1852      C1873   1.290       .  A
O1853     Zr1863   2.425       .  S
O1853      C1872   1.284       .  A
O1854     Zr1862   2.431       .  S
O1854      C1873   1.284       .  A
O1855      C1872   1.289       .  A
O1856     Zr1864   2.410       .  S
O1856      C1871   1.278       .  A
O1857     Zr1862   2.396       .  S
O1857     Zr1864   2.385       .  S
O1858     Zr1863   2.395       .  S
O1858     Zr1864   2.385       .  S
O1858      H1893   0.966       .  S
O1859     Zr1862   2.399       .  S
O1859     Zr1879   2.390   1_545  S
O1859      H1896   0.963       .  S
O1860     Zr1863   2.385       .  S
O1860     Zr1879   2.374   1_545  S
Zr1861     O1886   2.444       .  S
Zr1861     O1880   2.458       .  S
Zr1861     O1888   2.453       .  S
Zr1861     O1876   2.447       .  S
Zr1861     O1867   2.408   1_565  S
Zr1861     O1868   2.412   1_565  S
Zr1861     O1869   2.384       .  S
Zr1861     O1870   2.384       .  S
Zr1862     O1881   2.438       .  S
Zr1862     O1874   2.436       .  S
Zr1862     O1875   2.434       .  S
Zr1862     O1868   2.398       .  S
Zr1862     O1869   2.395   1_545  S
Zr1863     O1865   2.436       .  S
Zr1863     O1887   2.436       .  S
Zr1863     O1889   2.429       .  S
Zr1863     O1867   2.391       .  S
Zr1863     O1870   2.395   1_545  S
Zr1864     O1890   2.437       .  S
Zr1864     O1891   2.437       .  S
Zr1864     O1866   2.436       .  S
Zr1864     O1867   2.394       .  S
Zr1864     O1868   2.385       .  S
O1865      H1902   0.990       .  S
O1866      H1897   0.990       .  S
O1866      H1911   0.990       .  S
O1868      H1894   0.965       .  S
O1869     Zr1879   2.382       .  S
O1870     Zr1879   2.381       .  S
O1870      H1895   0.966       .  S
C1871      C2184   1.472       .  S
C1872      C2715   1.476       .  S
C1873      C2856   1.481       .  S
O1874      H1910   0.990       .  S
O1875      C1877   1.285   1_545  A
O1876      C1877   1.286       .  A
C1877      C2219   1.473       .  S
O1878     Zr1879   2.438       .  S
O1878      H1907   0.990       .  S
Zr1879     O1882   2.436       .  S
Zr1879     O1883   2.440       .  S
Zr1879     O1884   2.392       .  S
O1880      C1885   1.287       .  A
O1881      H1898   0.990       .  S
O1881      H1913   0.990       .  S
O1882      H1899   0.990       .  S
O1883      H1903   0.990       .  S
O1883      H1912   0.990       .  S
O1884      C1885   1.276       .  A
C1885      C2171   1.470       .  S
O1886      H1905   0.990       .  S
O1886      H1909   0.991       .  S
O1887      H1901   0.990       .  S
O1887      H1908   0.990       .  S
O1888      C1892   1.285       .  A
O1889      C1892   1.283   1_545  A
O1890      H1900   0.990       .  S
O1891      H1904   0.990       .  S
C1892      C2203   1.475       .  S
Zr1915     O1916   2.442       .  S
Zr1915     O1917   2.461       .  S
Zr1915     O1918   2.466       .  S
Zr1915     O1921   2.461       .  S
Zr1915     O1923   2.386       .  S
Zr1915     O1924   2.392       .  S
Zr1915     O1925   2.422       .  S
Zr1915     O1926   2.404       .  S
O1916      H1972   0.990       .  S
O1916      H1980   0.990       .  S
O1917      C1937   1.286       .  A
O1918      C1939   1.288       .  A
O1919     Zr1929   2.421       .  S
O1919      C1938   1.282       .  A
O1920     Zr1928   2.423       .  S
O1920      C1939   1.284       .  A
O1921      C1938   1.289       .  A
O1922     Zr1930   2.398       .  S
O1922      C1937   1.278       .  A
O1923     Zr1928   2.398       .  S
O1923     Zr1930   2.381       .  S
O1924     Zr1929   2.392       .  S
O1924     Zr1930   2.381       .  S
O1924      H1959   0.966       .  S
O1925     Zr1928   2.402       .  S
O1925     Zr1945   2.390       .  S
O1925      H1962   0.963       .  S
O1926     Zr1929   2.387       .  S
O1926     Zr1945   2.386       .  S
Zr1927     O1952   2.442       .  S
Zr1927     O1946   2.450       .  S
Zr1927     O1954   2.440       .  S
Zr1927     O1942   2.437       .  S
Zr1927     O1933   2.407       .  S
Zr1927     O1934   2.403       .  S
Zr1927     O1935   2.379       .  S
Zr1927     O1936   2.384       .  S
Zr1928     O1947   2.437       .  S
Zr1928     O1940   2.435       .  S
Zr1928     O1941   2.436       .  S
Zr1928     O1934   2.388       .  S
Zr1928     O1935   2.391       .  S
Zr1929     O1931   2.434       .  S
Zr1929     O1953   2.438       .  S
Zr1929     O1955   2.420       .  S
Zr1929     O1933   2.393       .  S
Zr1929     O1936   2.392       .  S
Zr1930     O1956   2.435       .  S
Zr1930     O1957   2.434       .  S
Zr1930     O1932   2.438       .  S
Zr1930     O1933   2.390       .  S
Zr1930     O1934   2.384       .  S
O1931      H1968   0.990       .  S
O1932      H1963   0.990       .  S
O1932      H1977   0.990       .  S
O1934      H1960   0.965       .  S
O1935     Zr1945   2.379       .  S
O1936     Zr1945   2.381       .  S
O1936      H1961   0.966       .  S
C1937      C2168   1.474       .  S
C1938      C2635   1.474       .  S
C1939      C2827   1.477       .  S
O1940      H1976   0.990       .  S
O1941      C1943   1.284       .  A
O1942      C1943   1.284       .  A
C1943      C2264   1.471       .  S
O1944     Zr1945   2.439       .  S
O1944      H1973   0.990       .  S
Zr1945     O1948   2.438       .  S
Zr1945     O1949   2.438       .  S
Zr1945     O1950   2.414       .  S
O1946      C1951   1.286       .  A
O1947      H1964   0.990       .  S
O1947      H1979   0.990       .  S
O1948      H1965   0.990       .  S
O1949      H1969   0.990       .  S
O1949      H1978   0.990       .  S
O1950      C1951   1.280       .  A
C1951      C2187   1.473       .  S
O1952      H1971   0.990       .  S
O1952      H1975   0.990       .  S
O1953      H1967   0.990       .  S
O1953      H1974   0.990       .  S
O1954      C1958   1.283       .  A
O1955      C1958   1.282       .  A
O1956      H1966   0.990       .  S
O1957      H1970   0.990       .  S
C1958      C2152   1.469       .  S
Zr1981     O1982   2.443       .  S
Zr1981     O1983   2.451       .  S
Zr1981     O1984   2.448       .  S
Zr1981     O1987   2.444       .  S
Zr1981     O1989   2.383       .  S
Zr1981     O1990   2.390       .  S
Zr1981     O1991   2.416       .  S
Zr1981     O1992   2.404       .  S
O1982      H2038   0.990       .  S
O1982      H2046   0.990       .  S
O1983      C2003   1.284       .  A
O1984      C2005   1.285       .  A
O1985     Zr1995   2.425       .  S
O1985      C2004   1.282       .  A
O1986     Zr1994   2.422       .  S
O1986      C2005   1.282       .  A
O1987      C2004   1.285       .  A
O1988     Zr1996   2.403       .  S
O1988      C2003   1.277       .  A
O1989     Zr1994   2.397       .  S
O1989     Zr1996   2.382       .  S
O1990     Zr1995   2.395       .  S
O1990     Zr1996   2.377       .  S
O1990      H2025   0.967       .  S
O1991     Zr1994   2.399       .  S
O1991     Zr2011   2.385       .  S
O1991      H2028   0.963       .  S
O1992     Zr1995   2.389       .  S
O1992     Zr2011   2.392       .  S
Zr1993     O2018   2.441       .  S
Zr1993     O2012   2.464       .  S
Zr1993     O2020   2.442       .  S
Zr1993     O2008   2.457       .  S
Zr1993     O1999   2.414       .  S
Zr1993     O2000   2.409       .  S
Zr1993     O2001   2.380       .  S
Zr1993     O2002   2.387       .  S
Zr1994     O2013   2.437       .  S
Zr1994     O2006   2.433       .  S
Zr1994     O2007   2.429       .  S
Zr1994     O2000   2.393       .  S
Zr1994     O2001   2.394       .  S
Zr1995     O1997   2.435       .  S
Zr1995     O2019   2.438       .  S
Zr1995     O2021   2.429       .  S
Zr1995     O1999   2.399       .  S
Zr1995     O2002   2.391       .  S
Zr1996     O2022   2.435       .  S
Zr1996     O2023   2.435       .  S
Zr1996     O1998   2.437       .  S
Zr1996     O1999   2.396       .  S
Zr1996     O2000   2.386       .  S
O1997      H2034   0.990       .  S
O1998      H2029   0.990       .  S
O1998      H2043   0.990       .  S
O2000      H2026   0.965       .  S
O2001     Zr2011   2.378       .  S
O2002     Zr2011   2.379       .  S
O2002      H2027   0.966       .  S
C2003      C2139   1.470       .  S
C2004      C2600   1.466       .  S
C2005      C2776   1.467       .  S
O2006      H2042   0.990       .  S
O2007      C2009   1.284       .  A
O2008      C2009   1.288       .  A
C2009      C2280   1.475       .  S
O2010     Zr2011   2.436       .  S
O2010      H2039   0.990       .  S
Zr2011     O2014   2.436       .  S
Zr2011     O2015   2.438       .  S
Zr2011     O2016   2.404       .  S
O2012      C2017   1.289       .  A
O2013      H2030   0.990       .  S
O2013      H2045   0.990       .  S
O2014      H2031   0.990       .  S
O2015      H2035   0.990       .  S
O2015      H2044   0.990       .  S
O2016      C2017   1.278       .  A
C2017      C2123   1.475       .  S
O2018      H2037   0.990       .  S
O2018      H2041   0.990       .  S
O2019      H2033   0.990       .  S
O2019      H2040   0.990       .  S
O2020      C2024   1.285       .  A
O2021      C2024   1.283       .  A
O2022      H2032   0.989       .  S
O2023      H2036   0.990       .  S
C2024      C2155   1.470       .  S
Zr2047     O2048   2.441       .  S
Zr2047     O2049   2.464       .  S
Zr2047     O2050   2.462       .  S
Zr2047     O2053   2.468       .  S
Zr2047     O2055   2.387       .  S
Zr2047     O2056   2.391       .  S
Zr2047     O2057   2.421       .  S
Zr2047     O2058   2.403       .  S
O2048      H2104   0.990       .  S
O2048      H2112   0.991       .  S
O2049      C2069   1.288       .  A
O2050      C2071   1.287       .  A
O2051     Zr2061   2.422       .  S
O2051      C2070   1.282       .  A
O2052     Zr2060   2.420       .  S
O2052      C2071   1.282       .  A
O2053      C2070   1.290       .  A
O2054     Zr2062   2.398       .  S
O2054      C2069   1.277       .  A
O2055     Zr2060   2.394       .  S
O2055     Zr2062   2.383       .  S
O2056     Zr2061   2.397       .  S
O2056     Zr2062   2.381       .  S
O2056      H2091   0.966       .  S
O2057     Zr2060   2.400       .  S
O2057     Zr2077   2.393       .  S
O2057      H2094   0.963       .  S
O2058     Zr2061   2.388       .  S
O2058     Zr2077   2.386       .  S
Zr2059     O2084   2.442       .  S
Zr2059     O2078   2.448       .  S
Zr2059     O2086   2.456       .  S
Zr2059     O2074   2.451       .  S
Zr2059     O2065   2.402       .  S
Zr2059     O2066   2.408       .  S
Zr2059     O2067   2.385       .  S
Zr2059     O2068   2.385       .  S
Zr2060     O2079   2.439       .  S
Zr2060     O2072   2.434       .  S
Zr2060     O2073   2.424       .  S
Zr2060     O2066   2.394       .  S
Zr2060     O2067   2.394       .  S
Zr2061     O2063   2.435       .  S
Zr2061     O2085   2.438       .  S
Zr2061     O2087   2.424       .  S
Zr2061     O2065   2.393       .  S
Zr2061     O2068   2.390       .  S
Zr2062     O2088   2.435       .  S
Zr2062     O2089   2.436       .  S
Zr2062     O2064   2.437       .  S
Zr2062     O2065   2.385       .  S
Zr2062     O2066   2.387       .  S
O2063      H2100   0.990       .  S
O2064      H2095   0.990       .  S
O2064      H2109   0.989       .  S
O2066      H2092   0.966       .  S
O2067     Zr2077   2.382       .  S
O2068     Zr2077   2.381       .  S
O2068      H2093   0.966       .  S
C2069      C2120   1.473       .  S
C2070      C2539   1.475       .  S
C2071      C2760   1.476       .  S
O2072      H2108   0.990       .  S
O2073      C2075   1.283       .  A
O2074      C2075   1.286       .  A
C2075      C2344   1.470       .  S
O2076     Zr2077   2.439       .  S
O2076      H2105   0.990       .  S
Zr2077     O2080   2.437       .  S
Zr2077     O2081   2.440       .  S
Zr2077     O2082   2.404   1_565  S
O2078      C2083   1.285   1_565  A
O2079      H2096   0.990       .  S
O2079      H2111   0.990       .  S
O2080      H2097   0.990       .  S
O2081      H2101   0.990       .  S
O2081      H2110   0.990       .  S
O2082      C2083   1.278       .  A
C2083      C2136   1.467       .  S
O2084      H2103   0.990       .  S
O2084      H2107   0.991       .  S
O2085      H2099   0.990       .  S
O2085      H2106   0.989       .  S
O2086      C2090   1.286       .  A
O2087      C2090   1.283       .  A
O2088      H2098   0.990       .  S
O2089      H2102   0.990       .  S
C2090      C2200   1.475       .  S
C2113      C2118   1.380       .  A
C2113      C2114   1.406       .  A
C2113      O2119   1.317       .  A
C2114      C2115   1.404       .  A
C2114      H2125   1.082       .  S
C2115      C2124   1.368       .  A
C2115      C2116   1.380       .  A
C2116      C2117   1.405       .  A
C2116      O2122   1.316       .  A
C2117      C2118   1.402       .  A
C2117      H2126   1.082       .  S
C2118      C2121   1.366       .  A
O2119      C2120   1.333       .  A
C2120      C2121   1.391       .  A
C2121      H2127   1.082       .  S
O2122      C2123   1.332       .  A
C2123      C2124   1.392       .  A
C2124      H2128   1.082       .  S
C2129      C2134   1.380       .  A
C2129      C2130   1.404       .  A
C2129      O2135   1.316       .  A
C2130      C2131   1.402       .  A
C2130      H2141   1.082       .  S
C2131      C2140   1.366       .  A
C2131      C2132   1.380       .  A
C2132      C2133   1.403       .  A
C2132      O2138   1.314       .  A
C2133      C2134   1.400       .  A
C2133      H2142   1.082       .  S
C2134      C2137   1.364       .  A
O2135      C2136   1.331       .  A
C2136      C2137   1.390       .  A
C2137      H2143   1.083       .  S
O2138      C2139   1.331       .  A
C2139      C2140   1.392       .  A
C2140      H2144   1.082       .  S
C2145      C2150   1.381       .  A
C2145      C2146   1.404       .  A
C2145      O2151   1.320       .  A
C2146      C2147   1.404       .  A
C2146      H2157   1.082       .  S
C2147      C2156   1.362       .  A
C2147      C2148   1.381       .  A
C2148      C2149   1.402       .  A
C2148      O2154   1.319       .  A
C2149      C2150   1.401       .  A
C2149      H2158   1.082       .  S
C2150      C2153   1.359       .  A
O2151      C2152   1.331       .  A
C2152      C2153   1.390       .  A
C2153      H2159   1.083       .  S
O2154      C2155   1.331       .  A
C2155      C2156   1.392       .  A
C2156      H2160   1.082       .  S
C2161      C2166   1.381       .  A
C2161      C2162   1.404       .  A
C2161      O2167   1.324       .  A
C2162      C2163   1.405       .  A
C2162      H2173   1.082       .  S
C2163      C2172   1.357       .  A
C2163      C2164   1.381       .  A
C2164      C2165   1.399       .  A
C2164      O2170   1.321       .  A
C2165      C2166   1.402       .  A
C2165      H2174   1.082       .  S
C2166      C2169   1.353       .  A
O2167      C2168   1.332       .  A
C2168      C2169   1.392       .  A
C2169      H2175   1.083       .  S
O2170      C2171   1.329       .  A
C2171      C2172   1.394       .  A
C2172      H2176   1.083       .  S
C2177      C2182   1.380       .  A
C2177      C2178   1.405       .  A
C2177      O2183   1.319       .  A
C2178      C2179   1.404       .  A
C2178      H2189   1.082       .  S
C2179      C2188   1.365       .  A
C2179      C2180   1.380       .  A
C2180      C2181   1.403       .  A
C2180      O2186   1.317       .  A
C2181      C2182   1.402       .  A
C2181      H2190   1.082       .  S
C2182      C2185   1.363       .  A
O2183      C2184   1.332       .  A
C2184      C2185   1.391       .  A
C2185      H2191   1.082       .  S
O2186      C2187   1.331       .  A
C2187      C2188   1.393       .  A
C2188      H2192   1.082       .  S
C2193      C2198   1.380       .  A
C2193      C2194   1.408       .  A
C2193      O2199   1.322       .  A
C2194      C2195   1.407       .  A
C2194      H2205   1.082       .  S
C2195      C2204   1.367       .  A
C2195      C2196   1.380       .  A
C2196      C2197   1.402       .  A
C2196      O2202   1.318       .  A
C2197      C2198   1.401       .  A
C2197      H2206   1.082       .  S
C2198      C2201   1.361       .  A
O2199      C2200   1.333       .  A
C2200      C2201   1.391       .  A
C2201      H2207   1.083       .  S
O2202      C2203   1.330       .  A
C2203      C2204   1.394       .  A
C2204      H2208   1.083       .  S
C2209      C2214   1.380       .  A
C2209      C2210   1.405   1_655  A
C2209      O2215   1.321       .  A
C2210      C2211   1.405       .  A
C2210      H2221   1.082       .  S
C2211      C2220   1.364       .  A
C2211      C2212   1.380       .  A
C2212      C2213   1.403       .  A
C2212      O2218   1.319       .  A
C2213      C2214   1.402   1_455  A
C2213      H2222   1.082       .  S
C2214      C2217   1.361       .  A
O2215      C2216   1.332       .  A
C2216      C2217   1.391       .  A
C2217      H2223   1.083       .  S
O2218      C2219   1.331       .  A
C2219      C2220   1.393       .  A
C2220      H2224   1.082       .  S
C2225      C2230   1.380       .  A
C2225      C2226   1.404       .  A
C2225      O2231   1.315       .  A
C2226      C2227   1.401       .  A
C2226      H2237   1.082       .  S
C2227      C2236   1.364       .  A
C2227      C2228   1.380       .  A
C2228      C2229   1.402       .  A
C2228      O2234   1.315       .  A
C2229      C2230   1.400       .  A
C2229      H2238   1.082       .  S
C2230      C2233   1.363       .  A
O2231      C2232   1.331       .  A
C2232      C2233   1.390       .  A
C2233      H2239   1.082       .  S
O2234      C2235   1.330       .  A
C2235      C2236   1.392       .  A
C2236      H2240   1.083       .  S
C2241      C2246   1.380       .  A
C2241      C2242   1.406       .  A
C2241      O2247   1.318       .  A
C2242      C2243   1.403       .  A
C2242      H2253   1.082       .  S
C2243      C2252   1.367       .  A
C2243      C2244   1.380       .  A
C2244      C2245   1.405       .  A
C2244      O2250   1.317       .  A
C2245      C2246   1.403       .  A
C2245      H2254   1.082       .  S
C2246      C2249   1.367       .  A
O2247      C2248   1.333       .  A
C2248      C2249   1.392       .  A
C2249      H2255   1.082       .  S
O2250      C2251   1.332       .  A
C2251      C2252   1.392       .  A
C2252      H2256   1.082       .  S
C2257      C2262   1.380       .  A
C2257      C2258   1.404       .  A
C2257      O2263   1.320       .  A
C2258      C2259   1.404   1_455  A
C2258      H2269   1.082       .  S
C2259      C2268   1.362       .  A
C2259      C2260   1.380       .  A
C2260      C2261   1.403   1_655  A
C2260      O2266   1.320       .  A
C2261      C2262   1.403       .  A
C2261      H2270   1.082       .  S
C2262      C2265   1.361       .  A
O2263      C2264   1.331       .  A
C2264      C2265   1.392       .  A
C2265      H2271   1.083       .  S
O2266      C2267   1.331       .  A
C2267      C2268   1.393       .  A
C2268      H2272   1.083       .  S
C2273      C2278   1.380       .  A
C2273      C2274   1.405       .  A
C2273      O2279   1.322       .  A
C2274      C2275   1.405   1_455  A
C2274      H2285   1.082       .  S
C2275      C2284   1.362       .  A
C2275      C2276   1.380       .  A
C2276      C2277   1.406   1_655  A
C2276      O2282   1.323       .  A
C2277      C2278   1.406       .  A
C2277      H2286   1.082       .  S
C2278      C2281   1.364       .  A
O2279      C2280   1.332       .  A
C2280      C2281   1.393       .  A
C2281      H2287   1.082       .  S
O2282      C2283   1.332       .  A
C2283      C2284   1.393       .  A
C2284      H2288   1.083       .  S
C2289      C2294   1.380       .  A
C2289      C2290   1.405       .  A
C2289      O2295   1.323       .  A
C2290      C2291   1.406       .  A
C2290      H2301   1.082       .  S
C2291      C2300   1.363       .  A
C2291      C2292   1.380       .  A
C2292      C2293   1.403       .  A
C2292      O2298   1.320       .  A
C2293      C2294   1.403       .  A
C2293      H2302   1.082       .  S
C2294      C2297   1.360       .  A
O2295      C2296   1.332       .  A
C2296      C2297   1.393       .  A
C2297      H2303   1.083       .  S
O2298      C2299   1.331       .  A
C2299      C2300   1.393       .  A
C2300      H2304   1.083       .  S
C2305      C2310   1.381       .  A
C2305      C2306   1.401       .  A
C2305      O2311   1.321       .  A
C2306      C2307   1.402       .  A
C2306      H2317   1.082       .  S
C2307      C2316   1.355       .  A
C2307      C2308   1.381       .  A
C2308      C2309   1.402       .  A
C2308      O2314   1.322       .  A
C2309      C2310   1.404       .  A
C2309      H2318   1.082       .  S
C2310      C2313   1.358       .  A
O2311      C2312   1.330       .  A
C2312      C2313   1.394       .  A
C2313      H2319   1.083       .  S
O2314      C2315   1.331       .  A
C2315      C2316   1.393       .  A
C2316      H2320   1.083       .  S
C2321      C2326   1.380       .  A
C2321      C2322   1.406       .  A
C2321      O2327   1.319       .  A
C2322      C2323   1.404       .  A
C2322      H2333   1.082       .  S
C2323      C2332   1.366       .  A
C2323      C2324   1.380       .  A
C2324      C2325   1.403       .  A
C2324      O2330   1.317       .  A
C2325      C2326   1.401       .  A
C2325      H2334   1.082       .  S
C2326      C2329   1.363       .  A
O2327      C2328   1.333       .  A
C2328      C2329   1.391       .  A
C2329      H2335   1.082       .  S
O2330      C2331   1.331       .  A
C2331      C2332   1.393       .  A
C2332      H2336   1.082       .  S
C2337      C2342   1.380       .  A
C2337      C2338   1.403       .  A
C2337      O2343   1.318       .  A
C2338      C2339   1.402   1_455  A
C2338      H2349   1.082       .  S
C2339      C2348   1.362       .  A
C2339      C2340   1.380       .  A
C2340      C2341   1.404   1_655  A
C2340      O2346   1.319       .  A
C2341      C2342   1.404       .  A
C2341      H2350   1.082       .  S
C2342      C2345   1.363       .  A
O2343      C2344   1.330       .  A
C2344      C2345   1.393       .  A
C2345      H2351   1.083       .  S
O2346      C2347   1.332       .  A
C2347      C2348   1.391       .  A
C2348      H2352   1.083       .  S
C2353      C2358   1.381       .  A
C2353      C2354   1.404       .  A
C2353      O2359   1.318       .  A
C2354      C2355   1.403       .  A
C2354      H2365   1.082       .  S
C2355      C2364   1.362       .  A
C2355      C2356   1.381       .  A
C2356      C2357   1.397       .  A
C2356      O2362   1.313       .  A
C2357      C2358   1.396       .  A
C2357      H2366   1.082       .  S
C2358      C2361   1.355       .  A
O2359      C2360   1.331       .  A
C2360      C2361   1.387       .  A
C2361      H2367   1.083       .  S
O2362      C2363   1.327       .  A
C2363      C2364   1.392       .  A
C2364      H2368   1.083       .  S
C2369      C2374   1.380       .  A
C2369      C2370   1.408       .  A
C2369      O2375   1.322       .  A
C2370      C2371   1.407       .  A
C2370      H2381   1.082       .  S
C2371      C2380   1.368       .  A
C2371      C2372   1.380       .  A
C2372      C2373   1.400       .  A
C2372      O2378   1.316       .  A
C2373      C2374   1.398       .  A
C2373      H2382   1.082       .  S
C2374      C2377   1.357       .  A
O2375      C2376   1.333       .  A
C2376      C2377   1.388       .  A
C2377      H2383   1.083       .  S
O2378      C2379   1.330       .  A
C2379      C2380   1.394       .  A
C2380      H2384   1.082       .  S
C2385      C2390   1.380       .  A
C2385      C2386   1.405       .  A
C2385      O2391   1.316       .  A
C2386      C2387   1.402       .  A
C2386      H2397   1.082       .  S
C2387      C2396   1.367       .  A
C2387      C2388   1.379       .  A
C2388      C2389   1.406       .  A
C2388      O2394   1.317       .  A
C2389      C2390   1.403       .  A
C2389      H2398   1.082       .  S
C2390      C2393   1.368       .  A
O2391      C2392   1.332       .  A
C2392      C2393   1.393       .  A
C2393      H2399   1.082       .  S
O2394      C2395   1.333       .  A
C2395      C2396   1.391       .  A
C2396      H2400   1.082       .  S
C2401      C2406   1.380       .  A
C2401      C2402   1.404       .  A
C2401      O2407   1.317       .  A
C2402      C2403   1.402       .  A
C2402      H2413   1.082       .  S
C2403      C2412   1.365       .  A
C2403      C2404   1.380       .  A
C2404      C2405   1.402       .  A
C2404      O2410   1.316       .  A
C2405      C2406   1.400       .  A
C2405      H2414   1.082       .  S
C2406      C2409   1.362       .  A
O2407      C2408   1.332       .  A
C2408      C2409   1.390       .  A
C2409      H2415   1.082       .  S
O2410      C2411   1.331       .  A
C2411      C2412   1.392       .  A
C2412      H2416   1.082       .  S
C2417      C2422   1.380       .  A
C2417      C2418   1.409       .  A
C2417      O2423   1.324       .  A
C2418      C2419   1.408       .  A
C2418      H2429   1.082       .  S
C2419      C2428   1.369       .  A
C2419      C2420   1.380       .  A
C2420      C2421   1.401       .  A
C2420      O2426   1.316       .  A
C2421      C2422   1.400       .  A
C2421      H2430   1.082       .  S
C2422      C2425   1.359       .  A
O2423      C2424   1.334       .  A
C2424      C2425   1.391       .  A
C2425      H2431   1.083       .  S
O2426      C2427   1.330       .  A
C2427      C2428   1.395       .  A
C2428      H2432   1.082       .  S
C2433      C2438   1.380       .  A
C2433      C2434   1.409       .  A
C2433      O2439   1.323       .  A
C2434      C2435   1.408       .  A
C2434      H2445   1.082       .  S
C2435      C2444   1.368       .  A
C2435      C2436   1.380       .  A
C2436      C2437   1.400       .  A
C2436      O2442   1.315       .  A
C2437      C2438   1.399       .  A
C2437      H2446   1.082       .  S
C2438      C2441   1.358       .  A
O2439      C2440   1.334       .  A
C2440      C2441   1.389       .  A
C2441      H2447   1.083       .  S
O2442      C2443   1.329       .  A
C2443      C2444   1.394       .  A
C2444      H2448   1.082       .  S
C2449      C2454   1.380       .  A
C2449      C2450   1.406       .  A
C2449      O2455   1.320       .  A
C2450      C2451   1.405       .  A
C2450      H2461   1.082       .  S
C2451      C2460   1.365       .  A
C2451      C2452   1.380       .  A
C2452      C2453   1.406       .  A
C2452      O2458   1.321       .  A
C2453      C2454   1.405       .  A
C2453      H2462   1.082       .  S
C2454      C2457   1.366       .  A
O2455      C2456   1.333       .  A
C2456      C2457   1.393       .  A
C2457      H2463   1.082       .  S
O2458      C2459   1.332       .  A
C2459      C2460   1.394       .  A
C2460      H2464   1.083       .  S
C2465      C2470   1.381       .  A
C2465      C2466   1.404       .  A
C2465      O2471   1.323       .  A
C2466      C2467   1.405       .  A
C2466      H2477   1.082       .  S
C2467      C2476   1.358       .  A
C2467      C2468   1.381       .  A
C2468      C2469   1.402       .  A
C2468      O2474   1.322       .  A
C2469      C2470   1.403       .  A
C2469      H2478   1.082       .  S
C2470      C2473   1.356       .  A
O2471      C2472   1.332       .  A
C2472      C2473   1.392       .  A
C2473      H2479   1.083       .  S
O2474      C2475   1.331       .  A
C2475      C2476   1.394       .  A
C2476      H2480   1.083       .  S
C2481      C2486   1.380       .  A
C2481      C2482   1.403       .  A
C2481      O2487   1.315   1_545  A
C2482      C2483   1.400       .  A
C2482      H2493   1.082       .  S
C2483      C2492   1.364       .  A
C2483      C2484   1.380       .  A
C2484      C2485   1.405       .  A
C2484      O2490   1.315       .  A
C2485      C2486   1.403       .  A
C2485      H2494   1.082       .  S
C2486      C2489   1.366   1_545  A
O2487      C2488   1.331       .  A
C2488      C2489   1.393       .  A
C2489      H2495   1.083       .  S
O2490      C2491   1.332       .  A
C2491      C2492   1.390       .  A
C2492      H2496   1.082       .  S
C2497      C2502   1.380       .  A
C2497      C2498   1.409       .  A
C2497      O2503   1.322       .  A
C2498      C2499   1.408       .  A
C2498      H2509   1.082       .  S
C2499      C2508   1.369       .  A
C2499      C2500   1.380       .  A
C2500      C2501   1.399       .  A
C2500      O2506   1.314       .  A
C2501      C2502   1.397       .  A
C2501      H2510   1.082       .  S
C2502      C2505   1.356       .  A
O2503      C2504   1.333       .  A
C2504      C2505   1.388       .  A
C2505      H2511   1.083       .  S
O2506      C2507   1.328       .  A
C2507      C2508   1.395       .  A
C2508      H2512   1.082       .  S
C2513      C2518   1.381       .  A
C2513      C2514   1.404       .  A
C2513      O2519   1.319       .  A
C2514      C2515   1.403       .  A
C2514      H2525   1.082       .  S
C2515      C2524   1.362       .  A
C2515      C2516   1.381       .  A
C2516      C2517   1.402       .  A
C2516      O2522   1.318       .  A
C2517      C2518   1.401       .  A
C2517      H2526   1.082       .  S
C2518      C2521   1.360       .  A
O2519      C2520   1.331       .  A
C2520      C2521   1.391       .  A
C2521      H2527   1.083       .  S
O2522      C2523   1.330       .  A
C2523      C2524   1.391       .  A
C2524      H2528   1.083       .  S
C2529      C2534   1.380       .  A
C2529      C2530   1.409       .  A
C2529      O2535   1.324       .  A
C2530      C2531   1.409       .  A
C2530      H2541   1.082       .  S
C2531      C2540   1.369       .  A
C2531      C2532   1.380       .  A
C2532      C2533   1.400       .  A
C2532      O2538   1.317       .  A
C2533      C2534   1.399       .  A
C2533      H2542   1.082       .  S
C2534      C2537   1.357       .  A
O2535      C2536   1.334       .  A
C2536      C2537   1.390       .  A
C2537      H2543   1.083       .  S
O2538      C2539   1.330       .  A
C2539      C2540   1.395       .  A
C2540      H2544   1.082       .  S
C2545      C2550   1.380       .  A
C2545      C2546   1.405       .  A
C2545      O2551   1.319       .  A
C2546      C2547   1.404       .  A
C2546      H2557   1.082       .  S
C2547      C2556   1.364       .  A
C2547      C2548   1.381       .  A
C2548      C2549   1.402       .  A
C2548      O2554   1.316       .  A
C2549      C2550   1.400       .  A
C2549      H2558   1.082       .  S
C2550      C2553   1.361       .  A
O2551      C2552   1.331       .  A
C2552      C2553   1.389       .  A
C2553      H2559   1.083       .  S
O2554      C2555   1.330       .  A
C2555      C2556   1.393       .  A
C2556      H2560   1.083       .  S
C2561      C2566   1.381       .  A
C2561      C2562   1.400       .  A
C2561      O2567   1.321       .  A
C2562      C2563   1.401       .  A
C2562      H2573   1.082       .  S
C2563      C2572   1.355       .  A
C2563      C2564   1.381       .  A
C2564      C2565   1.404       .  A
C2564      O2570   1.323       .  A
C2565      C2566   1.405       .  A
C2565      H2574   1.082       .  S
C2566      C2569   1.359       .  A
O2567      C2568   1.330       .  A
C2568      C2569   1.395       .  A
C2569      H2575   1.083       .  S
O2570      C2571   1.332       .  A
C2571      C2572   1.391       .  A
C2572      H2576   1.083       .  S
C2577      C2582   1.380       .  A
C2577      C2578   1.404       .  A
C2577      O2583   1.317   1_545  A
C2578      C2579   1.403       .  A
C2578      H2589   1.082       .  S
C2579      C2588   1.364       .  A
C2579      C2580   1.380       .  A
C2580      C2581   1.404       .  A
C2580      O2586   1.318       .  A
C2581      C2582   1.402       .  A
C2581      H2590   1.082       .  S
C2582      C2585   1.364   1_545  A
O2583      C2584   1.332       .  A
C2584      C2585   1.391       .  A
C2585      H2591   1.082       .  S
O2586      C2587   1.332       .  A
C2587      C2588   1.393       .  A
C2588      H2592   1.082       .  S
C2593      C2598   1.381       .  A
C2593      C2594   1.398       .  A
C2593      O2599   1.315       .  A
C2594      C2595   1.398       .  A
C2594      H2605   1.082       .  S
C2595      C2604   1.356       .  A
C2595      C2596   1.380       .  A
C2596      C2597   1.407       .  A
C2596      O2602   1.323       .  A
C2597      C2598   1.407       .  A
C2597      H2606   1.082       .  S
C2598      C2601   1.366       .  A
O2599      C2600   1.328       .  A
C2600      C2601   1.394       .  A
C2601      H2607   1.083       .  S
O2602      C2603   1.333       .  A
C2603      C2604   1.390       .  A
C2604      H2608   1.083       .  S
C2609      C2614   1.380       .  A
C2609      C2610   1.405       .  A
C2609      O2615   1.320       .  A
C2610      C2611   1.405       .  A
C2610      H2621   1.082       .  S
C2611      C2620   1.364       .  A
C2611      C2612   1.380       .  A
C2612      C2613   1.407       .  A
C2612      O2618   1.323       .  A
C2613      C2614   1.406       .  A
C2613      H2622   1.082       .  S
C2614      C2617   1.365       .  A
O2615      C2616   1.331       .  A
C2616      C2617   1.392       .  A
C2617      H2623   1.082       .  S
O2618      C2619   1.333       .  A
C2619      C2620   1.394       .  A
C2620      H2624   1.083       .  S
C2625      C2630   1.380       .  A
C2625      C2626   1.409       .  A
C2625      O2631   1.325       .  A
C2626      C2627   1.409       .  A
C2626      H2637   1.082       .  S
C2627      C2636   1.368       .  A
C2627      C2628   1.380       .  A
C2628      C2629   1.401       .  A
C2628      O2634   1.317       .  A
C2629      C2630   1.400       .  A
C2629      H2638   1.082       .  S
C2630      C2633   1.357       .  A
O2631      C2632   1.334       .  A
C2632      C2633   1.391       .  A
C2633      H2639   1.083       .  S
O2634      C2635   1.330       .  A
C2635      C2636   1.394       .  A
C2636      H2640   1.082       .  S
C2641      C2646   1.380       .  A
C2641      C2642   1.405       .  A
C2641      O2647   1.321       .  A
C2642      C2643   1.405       .  A
C2642      H2653   1.082       .  S
C2643      C2652   1.363       .  A
C2643      C2644   1.380       .  A
C2644      C2645   1.405       .  A
C2644      O2650   1.322       .  A
C2645      C2646   1.404       .  A
C2645      H2654   1.082       .  S
C2646      C2649   1.363       .  A
O2647      C2648   1.332       .  A
C2648      C2649   1.391       .  A
C2649      H2655   1.082       .  S
O2650      C2651   1.332       .  A
C2651      C2652   1.394       .  A
C2652      H2656   1.083       .  S
C2657      C2662   1.381       .  A
C2657      C2658   1.403       .  A
C2657      O2663   1.318       .  A
C2658      C2659   1.402       .  A
C2658      H2669   1.082       .  S
C2659      C2668   1.361       .  A
C2659      C2660   1.381       .  A
C2660      C2661   1.400       .  A
C2660      O2666   1.315       .  A
C2661      C2662   1.400       .  A
C2661      H2670   1.082       .  S
C2662      C2665   1.358       .  A
O2663      C2664   1.330       .  A
C2664      C2665   1.391       .  A
C2665      H2671   1.083       .  S
O2666      C2667   1.328       .  A
C2667      C2668   1.390       .  A
C2668      H2672   1.083       .  S
C2673      C2678   1.380       .  A
C2673      C2674   1.404       .  A
C2673      O2679   1.316       .  A
C2674      C2675   1.402       .  A
C2674      H2685   1.082       .  S
C2675      C2684   1.366       .  A
C2675      C2676   1.380       .  A
C2676      C2677   1.404       .  A
C2676      O2682   1.316       .  A
C2677      C2678   1.402       .  A
C2677      H2686   1.082       .  S
C2678      C2681   1.365       .  A
O2679      C2680   1.332       .  A
C2680      C2681   1.391       .  A
C2681      H2687   1.082       .  S
O2682      C2683   1.332       .  A
C2683      C2684   1.392       .  A
C2684      H2688   1.082       .  S
C2689      C2694   1.380       .  A
C2689      C2690   1.404       .  A
C2689      O2695   1.317       .  A
C2690      C2691   1.402       .  A
C2690      H2701   1.082       .  S
C2691      C2700   1.364       .  A
C2691      C2692   1.380       .  A
C2692      C2693   1.404       .  A
C2692      O2698   1.317       .  A
C2693      C2694   1.402       .  A
C2693      H2702   1.082       .  S
C2694      C2697   1.364       .  A
O2695      C2696   1.331       .  A
C2696      C2697   1.391       .  A
C2697      H2703   1.082       .  S
O2698      C2699   1.332       .  A
C2699      C2700   1.392       .  A
C2700      H2704   1.082       .  S
C2705      C2710   1.380       .  A
C2705      C2706   1.401       .  A
C2705      O2711   1.316       .  A
C2706      C2707   1.400       .  A
C2706      H2717   1.082       .  S
C2707      C2716   1.359       .  A
C2707      C2708   1.380       .  A
C2708      C2709   1.409       .  A
C2708      O2714   1.324       .  A
C2709      C2710   1.408       .  A
C2709      H2718   1.082       .  S
C2710      C2713   1.370       .  A
O2711      C2712   1.331       .  A
C2712      C2713   1.394       .  A
C2713      H2719   1.082       .  S
O2714      C2715   1.334       .  A
C2715      C2716   1.391       .  A
C2716      H2720   1.083       .  S
C2721      C2726   1.380       .  A
C2721      C2722   1.406       .  A
C2721      O2727   1.321       .  A
C2722      C2723   1.405       .  A
C2722      H2733   1.082       .  S
C2723      C2732   1.364       .  A
C2723      C2724   1.380       .  A
C2724      C2725   1.403       .  A
C2724      O2730   1.319       .  A
C2725      C2726   1.403       .  A
C2725      H2734   1.082       .  S
C2726      C2729   1.362       .  A
O2727      C2728   1.333       .  A
C2728      C2729   1.391       .  A
C2729      H2735   1.082       .  S
O2730      C2731   1.331       .  A
C2731      C2732   1.393       .  A
C2732      H2736   1.083       .  S
C2737      C2742   1.380       .  A
C2737      C2738   1.406       .  A
C2737      O2743   1.321       .  A
C2738      C2739   1.405       .  A
C2738      H2749   1.082       .  S
C2739      C2748   1.365       .  A
C2739      C2740   1.380       .  A
C2740      C2741   1.404       .  A
C2740      O2746   1.319       .  A
C2741      C2742   1.403       .  A
C2741      H2750   1.082       .  S
C2742      C2745   1.362       .  A
O2743      C2744   1.332       .  A
C2744      C2745   1.391       .  A
C2745      H2751   1.083       .  S
O2746      C2747   1.331       .  A
C2747      C2748   1.393       .  A
C2748      H2752   1.082       .  S
C2753      C2758   1.380       .  A
C2753      C2754   1.407       .  A
C2753      O2759   1.323       .  A
C2754      C2755   1.406       .  A
C2754      H2765   1.082       .  S
C2755      C2764   1.366       .  A
C2755      C2756   1.381       .  A
C2756      C2757   1.400       .  A
C2756      O2762   1.316       .  A
C2757      C2758   1.400       .  A
C2757      H2766   1.083       .  S
C2758      C2761   1.357       .  A
O2759      C2760   1.333       .  A
C2760      C2761   1.392       .  A
C2761      H2767   1.083       .  S
O2762      C2763   1.329       .  A
C2763      C2764   1.394       .  A
C2764      H2768   1.083       .  S
C2769      C2774   1.381       .  A
C2769      C2770   1.398       .  A
C2769      O2775   1.314       .  A
C2770      C2771   1.397       .  A
C2770      H2781   1.082       .  S
C2771      C2780   1.356       .  A
C2771      C2772   1.380       .  A
C2772      C2773   1.407       .  A
C2772      O2778   1.322       .  A
C2773      C2774   1.406       .  A
C2773      H2782   1.082       .  S
C2774      C2777   1.366       .  A
O2775      C2776   1.328       .  A
C2776      C2777   1.394       .  A
C2777      H2783   1.083       .  S
O2778      C2779   1.333       .  A
C2779      C2780   1.389       .  A
C2780      H2784   1.083       .  S
C2785      C2790   1.380       .  A
C2785      C2786   1.401       .  A
C2785      O2791   1.314       .  A
C2786      C2787   1.399       .  A
C2786      H2797   1.082       .  S
C2787      C2796   1.362       .  A
C2787      C2788   1.380       .  A
C2788      C2789   1.405       .  A
C2788      O2794   1.317       .  A
C2789      C2790   1.403       .  A
C2789      H2798   1.082       .  S
C2790      C2793   1.365       .  A
O2791      C2792   1.330       .  A
C2792      C2793   1.392       .  A
C2793      H2799   1.083       .  S
O2794      C2795   1.333       .  A
C2795      C2796   1.389       .  A
C2796      H2800   1.082       .  S
C2801      C2806   1.381       .  A
C2801      C2802   1.401       .  A
C2801      O2807   1.324       .  A
C2802      C2803   1.404       .  A
C2802      H2813   1.082       .  S
C2803      C2812   1.354       .  A
C2803      C2804   1.381       .  A
C2804      C2805   1.403       .  A
C2804      O2810   1.325       .  A
C2805      C2806   1.406       .  A
C2805      H2814   1.082       .  S
C2806      C2809   1.356       .  A
O2807      C2808   1.330       .  A
C2808      C2809   1.395       .  A
C2809      H2815   1.083       .  S
O2810      C2811   1.332       .  A
C2811      C2812   1.392       .  A
C2812      H2816   1.083       .  S
C2817      C2822   1.381       .  A
C2817      C2818   1.399   1_556  A
C2817      O2823   1.317       .  A
C2818      C2819   1.400       .  A
C2818      H2829   1.082       .  S
C2819      C2828   1.356       .  A
C2819      C2820   1.380       .  A
C2820      C2821   1.408       .  A
C2820      O2826   1.325       .  A
C2821      C2822   1.408   1_554  A
C2821      H2830   1.082       .  S
C2822      C2825   1.366       .  A
O2823      C2824   1.329       .  A
C2824      C2825   1.394       .  A
C2825      H2831   1.082       .  S
O2826      C2827   1.334       .  A
C2827      C2828   1.391       .  A
C2828      H2832   1.083       .  S
C2833      C2838   1.381       .  A
C2833      C2834   1.400       .  A
C2833      O2839   1.317       .  A
C2834      C2835   1.399       .  A
C2834      H2845   1.082       .  S
C2835      C2844   1.358       .  A
C2835      C2836   1.380       .  A
C2836      C2837   1.406       .  A
C2836      O2842   1.321       .  A
C2837      C2838   1.406       .  A
C2837      H2846   1.082       .  S
C2838      C2841   1.364       .  A
O2839      C2840   1.329       .  A
C2840      C2841   1.394       .  A
C2841      H2847   1.083       .  S
O2842      C2843   1.333       .  A
C2843      C2844   1.389       .  A
C2844      H2848   1.083       .  S
C2849      C2854   1.380       .  A
C2849      C2850   1.402       .  A
C2849      O2855   1.318       .  A
C2850      C2851   1.401   1_554  A
C2850      H2861   1.082       .  S
C2851      C2860   1.359       .  A
C2851      C2852   1.379       .  A
C2852      C2853   1.411   1_556  A
C2852      O2858   1.326       .  A
C2853      C2854   1.411       .  A
C2853      H2862   1.082       .  S
C2854      C2857   1.372       .  A
O2855      C2856   1.331       .  A
C2856      C2857   1.397       .  A
C2857      H2863   1.082       .  S
O2858      C2859   1.335       .  A
C2859      C2860   1.391       .  A
C2860      H2864   1.083       .  S
C2865      C2870   1.380       .  A
C2865      C2866   1.404       .  A
C2865      O2871   1.316       .  A
C2866      C2867   1.401       .  A
C2866      H2877   1.082       .  S
C2867      C2876   1.365       .  A
C2867      C2868   1.380       .  A
C2868      C2869   1.404       .  A
C2868      O2874   1.315       .  A
C2869      C2870   1.401       .  A
C2869      H2878   1.082       .  S
C2870      C2873   1.364       .  A
O2871      C2872   1.331       .  A
C2872      C2873   1.391       .  A
C2873      H2879   1.082       .  S
O2874      C2875   1.331       .  A
C2875      C2876   1.391       .  A
C2876      H2880   1.082       .  S
C2881      C2886   1.380       .  A
C2881      C2882   1.405       .  A
C2881      O2887   1.316       .  A
C2882      C2883   1.402       .  A
C2882      H2893   1.082       .  S
C2883      C2892   1.367       .  A
C2883      C2884   1.380       .  A
C2884      C2885   1.404       .  A
C2884      O2890   1.315       .  A
C2885      C2886   1.402       .  A
C2885      H2894   1.082       .  S
C2886      C2889   1.366       .  A
O2887      C2888   1.332       .  A
C2888      C2889   1.392       .  A
C2889      H2895   1.082       .  S
O2890      C2891   1.332       .  A
C2891      C2892   1.391       .  A
C2892      H2896   1.082       .  S
C2897      C2902   1.380       .  A
C2897      C2898   1.404       .  A
C2897      O2903   1.319       .  A
C2898      C2899   1.403       .  A
C2898      H2909   1.082       .  S
C2899      C2908   1.362       .  A
C2899      C2900   1.381       .  A
C2900      C2901   1.401       .  A
C2900      O2906   1.316       .  A
C2901      C2902   1.400       .  A
C2901      H2910   1.082       .  S
C2902      C2905   1.359       .  A
O2903      C2904   1.331       .  A
C2904      C2905   1.390       .  A
C2905      H2911   1.083       .  S
O2906      C2907   1.329       .  A
C2907      C2908   1.392       .  A
C2908      H2912   1.083       .  S
C2913      C2918   1.381       .  A
C2913      C2914   1.398       .  A
C2913      O2919   1.314       .  A
C2914      C2915   1.398   1_554  A
C2914      H2925   1.083       .  S
C2915      C2924   1.355       .  A
C2915      C2916   1.380       .  A
C2916      C2917   1.407   1_556  A
C2916      O2922   1.324       .  A
C2917      C2918   1.407       .  A
C2917      H2926   1.082       .  S
C2918      C2921   1.367       .  A
O2919      C2920   1.328       .  A
C2920      C2921   1.394       .  A
C2921      H2927   1.082       .  S
O2922      C2923   1.333       .  A
C2923      C2924   1.391       .  A
C2924      H2928   1.083       .  S
C2929      C2934   1.380       .  A
C2929      C2930   1.407   1_655  A
C2929      O2935   1.321       .  A
C2930      C2931   1.406       .  A
C2930      H2941   1.082       .  S
C2931      C2940   1.366       .  A
C2931      C2932   1.381       .  A
C2932      C2933   1.401       .  A
C2932      O2938   1.317       .  A
C2933      C2934   1.400   1_455  A
C2933      H2942   1.082       .  S
C2934      C2937   1.360       .  A
O2935      C2936   1.333       .  A
C2936      C2937   1.391       .  A
C2937      H2943   1.083       .  S
O2938      C2939   1.329       .  A
C2939      C2940   1.393       .  A
C2940      H2944   1.083       .  S
C2945      C2950   1.381       .  A
C2945      C2946   1.399       .  A
C2945      O2951   1.315       .  A
C2946      C2947   1.398   1_554  A
C2946      H2957   1.082       .  S
C2947      C2956   1.355       .  A
C2947      C2948   1.381       .  A
C2948      C2949   1.405   1_556  A
C2948      O2954   1.320       .  A
C2949      C2950   1.405       .  A
C2949      H2958   1.082       .  S
C2950      C2953   1.364       .  A
O2951      C2952   1.329       .  A
C2952      C2953   1.393       .  A
C2953      H2959   1.083       .  S
O2954      C2955   1.331       .  A
C2955      C2956   1.390       .  A
C2956      H2960   1.083       .  S
C2961      C2966   1.380       .  A
C2961      C2962   1.405       .  A
C2961      O2967   1.316       .  A
C2962      C2963   1.402       .  A
C2962      H2973   1.082       .  S
C2963      C2972   1.367       .  A
C2963      C2964   1.380       .  A
C2964      C2965   1.403       .  A
C2964      O2970   1.314       .  A
C2965      C2966   1.401       .  A
C2965      H2974   1.082       .  S
C2966      C2969   1.366       .  A
O2967      C2968   1.332       .  A
C2968      C2969   1.391       .  A
C2969      H2975   1.082       .  S
O2970      C2971   1.330       .  A
C2971      C2972   1.392       .  A
C2972      H2976   1.083       .  S
C2977      C2982   1.380       .  A
C2977      C2978   1.404       .  A
C2977      O2983   1.316       .  A
C2978      C2979   1.402       .  A
C2978      H2989   1.082       .  S
C2979      C2988   1.365       .  A
C2979      C2980   1.380       .  A
C2980      C2981   1.406       .  A
C2980      O2986   1.318       .  A
C2981      C2982   1.404       .  A
C2981      H2990   1.082       .  S
C2982      C2985   1.367       .  A
O2983      C2984   1.331       .  A
C2984      C2985   1.392       .  A
C2985      H2991   1.082       .  S
O2986      C2987   1.333       .  A
C2987      C2988   1.391       .  A
C2988      H2992   1.082       .  S
C2993      C2998   1.380       .  A
C2993      C2994   1.401       .  A
C2993      O2999   1.316       .  A
C2994      C2995   1.400   1_455  A
C2994      H3005   1.082       .  S
C2995      C3004   1.359       .  A
C2995      C2996   1.380       .  A
C2996      C2997   1.406   1_655  A
C2996      O3002   1.321       .  A
C2997      C2998   1.406       .  A
C2997      H3006   1.082       .  S
C2998      C3001   1.366       .  A
O2999      C3000   1.330       .  A
C3000      C3001   1.394       .  A
C3001      H3007   1.082       .  S
O3002      C3003   1.332       .  A
C3003      C3004   1.390       .  A
C3004      H3008   1.083       .  S
C3009      C3014   1.380       .  A
C3009      C3010   1.407       .  A
C3009      O3015   1.323       .  A
C3010      C3011   1.406       .  A
C3010      H3021   1.082       .  S
C3011      C3020   1.366       .  A
C3011      C3012   1.381       .  A
C3012      C3013   1.399       .  A
C3012      O3018   1.315       .  A
C3013      C3014   1.399       .  A
C3013      H3022   1.082       .  S
C3014      C3017   1.356       .  A
O3015      C3016   1.334       .  A
C3016      C3017   1.391       .  A
C3017      H3023   1.083       .  S
O3018      C3019   1.329       .  A
C3019      C3020   1.393       .  A
C3020      H3024   1.082       .  S
C3025      C3030   1.380       .  A
C3025      C3026   1.409   1_655  A
C3025      O3031   1.325       .  A
C3026      C3027   1.409       .  A
C3026      H3037   1.082       .  S
C3027      C3036   1.369       .  A
C3027      C3028   1.380       .  A
C3028      C3029   1.403       .  A
C3028      O3034   1.320       .  A
C3029      C3030   1.403   1_455  A
C3029      H3038   1.082       .  S
C3030      C3033   1.362       .  A
O3031      C3032   1.335       .  A
C3032      C3033   1.392       .  A
C3033      H3039   1.083       .  S
O3034      C3035   1.331       .  A
C3035      C3036   1.396       .  A
C3036      H3040   1.082       .  S
C3041      C3046   1.381       .  A
C3041      C3042   1.402       .  A
C3041      O3047   1.316       .  A
C3042      C3043   1.401       .  A
C3042      H3053   1.082       .  S
C3043      C3052   1.360       .  A
C3043      C3044   1.380       .  A
C3044      C3045   1.403       .  A
C3044      O3050   1.318       .  A
C3045      C3046   1.402       .  A
C3045      H3054   1.082       .  S
C3046      C3049   1.363       .  A
O3047      C3048   1.330       .  A
C3048      C3049   1.391       .  A
C3049      H3055   1.082       .  S
O3050      C3051   1.331       .  A
C3051      C3052   1.391       .  A
C3052      H3056   1.083       .  S
C3057      C3062   1.381       .  A
C3057      C3058   1.406       .  A
C3057      O3063   1.322       .  A
C3058      C3059   1.405       .  A
C3058      H3069   1.082       .  S
C3059      C3068   1.365       .  A
C3059      C3060   1.381       .  A
C3060      C3061   1.399       .  A
C3060      O3066   1.315       .  A
C3061      C3062   1.398       .  A
C3061      H3070   1.083       .  S
C3062      C3065   1.354       .  A
O3063      C3064   1.332       .  A
C3064      C3065   1.390       .  A
C3065      H3071   1.083       .  S
O3066      C3067   1.329       .  A
C3067      C3068   1.393       .  A
C3068      H3072   1.082       .  S
C3073      C3078   1.380       .  A
C3073      C3074   1.403       .  A
C3073      O3079   1.315       .  A
C3074      C3075   1.401       .  A
C3074      H3085   1.082       .  S
C3075      C3084   1.364       .  A
C3075      C3076   1.380       .  A
C3076      C3077   1.406       .  A
C3076      O3082   1.318       .  A
C3077      C3078   1.404       .  A
C3077      H3086   1.082       .  S
C3078      C3081   1.367       .  A
O3079      C3080   1.331       .  A
C3080      C3081   1.392       .  A
C3081      H3087   1.082       .  S
O3082      C3083   1.333       .  A
C3083      C3084   1.391       .  A
C3084      H3088   1.082       .  S
C3089      C3094   1.381       .  A
C3089      C3090   1.401       .  A
C3089      O3095   1.321       .  A
C3090      C3091   1.402       .  A
C3090      H3101   1.082       .  S
C3091      C3100   1.354       .  A
C3091      C3092   1.381       .  A
C3092      C3093   1.402       .  A
C3092      O3098   1.323       .  A
C3093      C3094   1.404       .  A
C3093      H3102   1.082       .  S
C3094      C3097   1.357       .  A
O3095      C3096   1.331       .  A
C3096      C3097   1.393       .  A
C3097      H3103   1.083       .  S
O3098      C3099   1.331       .  A
C3099      C3100   1.392       .  A
C3100      H3104   1.083       .  S
C3105      C3110   1.380       .  A
C3105      C3106   1.407   1_655  A
C3105      O3111   1.323       .  A
C3106      C3107   1.407       .  A
C3106      H3117   1.082       .  S
C3107      C3116   1.366       .  A
C3107      C3108   1.381       .  A
C3108      C3109   1.400       .  A
C3108      O3114   1.317       .  A
C3109      C3110   1.400   1_455  A
C3109      H3118   1.082       .  S
C3110      C3113   1.356       .  A
O3111      C3112   1.333       .  A
C3112      C3113   1.391       .  A
C3113      H3119   1.083       .  S
O3114      C3115   1.329       .  A
C3115      C3116   1.394       .  A
C3116      H3120   1.082       .  S
C3121      C3126   1.380       .  A
C3121      C3122   1.407       .  A
C3121      O3127   1.322       .  A
C3122      C3123   1.406       .  A
C3122      H3133   1.082       .  S
C3123      C3132   1.366       .  A
C3123      C3124   1.380       .  A
C3124      C3125   1.405       .  A
C3124      O3130   1.320       .  A
C3125      C3126   1.404       .  A
C3125      H3134   1.082       .  S
C3126      C3129   1.364       .  A
O3127      C3128   1.333       .  A
C3128      C3129   1.393       .  A
C3129      H3135   1.083       .  S
O3130      C3131   1.332       .  A
C3131      C3132   1.394       .  A
C3132      H3136   1.082       .  S
C3137      C3142   1.380       .  A
C3137      C3138   1.409       .  A
C3137      O3143   1.324       .  A
C3138      C3139   1.408       .  A
C3138      H3149   1.082       .  S
C3139      C3148   1.367       .  A
C3139      C3140   1.380       .  A
C3140      C3141   1.402       .  A
C3140      O3146   1.318       .  A
C3141      C3142   1.401       .  A
C3141      H3150   1.082       .  S
C3142      C3145   1.360       .  A
O3143      C3144   1.334       .  A
C3144      C3145   1.391       .  A
C3145      H3151   1.083       .  S
O3146      C3147   1.331       .  A
C3147      C3148   1.394       .  A
C3148      H3152   1.082       .  S
C3153      C3158   1.381       .  A
C3153      C3154   1.400       .  A
C3153      O3159   1.315       .  A
C3154      C3155   1.398       .  A
C3154      H3165   1.082       .  S
C3155      C3164   1.358       .  A
C3155      C3156   1.380       .  A
C3156      C3157   1.405       .  A
C3156      O3162   1.319       .  A
C3157      C3158   1.404       .  A
C3157      H3166   1.082       .  S
C3158      C3161   1.365       .  A
O3159      C3160   1.329       .  A
C3160      C3161   1.393       .  A
C3161      H3167   1.083       .  S
O3162      C3163   1.332       .  A
C3163      C3164   1.390       .  A
C3164      H3168   1.083       .  S
C3169      C3174   1.380       .  A
C3169      C3170   1.401       .  A
C3169      O3175   1.317       .  A
C3170      C3171   1.400       .  A
C3170      H3181   1.082       .  S
C3171      C3180   1.358       .  A
C3171      C3172   1.380       .  A
C3172      C3173   1.406       .  A
C3172      O3178   1.322       .  A
C3173      C3174   1.406       .  A
C3173      H3182   1.082       .  S
C3174      C3177   1.366       .  A
O3175      C3176   1.331       .  A
C3176      C3177   1.394       .  A
C3177      H3183   1.082       .  S
O3178      C3179   1.332       .  A
C3179      C3180   1.391       .  A
C3180      H3184   1.083       .  S
C3185      C3190   1.380       .  A
C3185      C3186   1.405       .  A
C3185      O3191   1.317       .  A
C3186      C3187   1.402       .  A
C3186      H3197   1.082       .  S
C3187      C3196   1.366       .  A
C3187      C3188   1.380       .  A
C3188      C3189   1.404       .  A
C3188      O3194   1.316       .  A
C3189      C3190   1.402       .  A
C3189      H3198   1.082       .  S
C3190      C3193   1.366       .  A
O3191      C3192   1.333       .  A
C3192      C3193   1.392       .  A
C3193      H3199   1.082       .  S
O3194      C3195   1.331       .  A
C3195      C3196   1.392       .  A
C3196      H3200   1.082       .  S
C3201      C3206   1.380       .  A
C3201      C3202   1.405       .  A
C3201      O3207   1.315   1_545  A
C3202      C3203   1.402       .  A
C3202      H3213   1.082       .  S
C3203      C3212   1.366       .  A
C3203      C3204   1.380       .  A
C3204      C3205   1.404       .  A
C3204      O3210   1.315       .  A
C3205      C3206   1.401       .  A
C3205      H3214   1.082       .  S
C3206      C3209   1.365   1_545  A
O3207      C3208   1.332       .  A
C3208      C3209   1.391       .  A
C3209      H3215   1.082       .  S
O3210      C3211   1.331       .  A
C3211      C3212   1.392       .  A
C3212      H3216   1.082       .  S
C3217      C3222   1.380       .  A
C3217      C3218   1.403       .  A
C3217      O3223   1.318       .  A
C3218      C3219   1.403       .  A
C3218      H3229   1.082       .  S
C3219      C3228   1.361       .  A
C3219      C3220   1.380       .  A
C3220      C3221   1.408       .  A
C3220      O3226   1.323       .  A
C3221      C3222   1.407       .  A
C3221      H3230   1.082       .  S
C3222      C3225   1.366       .  A
O3223      C3224   1.331       .  A
C3224      C3225   1.393       .  A
C3225      H3231   1.083       .  S
O3226      C3227   1.333       .  A
C3227      C3228   1.392       .  A
C3228      H3232   1.083       .  S
C3233      C3238   1.380       .  A
C3233      C3234   1.408   1_556  A
C3233      O3239   1.324       .  A
C3234      C3235   1.408       .  A
C3234      H3245   1.082       .  S
C3235      C3244   1.366       .  A
C3235      C3236   1.381       .  A
C3236      C3237   1.398       .  A
C3236      O3242   1.315       .  A
C3237      C3238   1.398   1_554  A
C3237      H3246   1.082       .  S
C3238      C3241   1.354       .  A
O3239      C3240   1.334       .  A
C3240      C3241   1.389       .  A
C3241      H3247   1.083       .  S
O3242      C3243   1.328       .  A
C3243      C3244   1.394       .  A
C3244      H3248   1.083       .  S
C3249      C3254   1.380       .  A
C3249      C3250   1.400       .  A
C3249      O3255   1.315       .  A
C3250      C3251   1.399       .  A
C3250      H3261   1.082       .  S
C3251      C3260   1.358       .  A
C3251      C3252   1.380       .  A
C3252      C3253   1.406       .  A
C3252      O3258   1.321       .  A
C3253      C3254   1.405       .  A
C3253      H3262   1.082       .  S
C3254      C3257   1.365       .  A
O3255      C3256   1.329       .  A
C3256      C3257   1.393       .  A
C3257      H3263   1.083       .  S
O3258      C3259   1.333       .  A
C3259      C3260   1.390       .  A
C3260      H3264   1.083       .  S
C3265      C3270   1.380       .  A
C3265      C3266   1.405       .  A
C3265      O3271   1.320       .  A
C3266      C3267   1.405       .  A
C3266      H3277   1.082       .  S
C3267      C3276   1.363       .  A
C3267      C3268   1.380       .  A
C3268      C3269   1.404       .  A
C3268      O3274   1.320       .  A
C3269      C3270   1.403       .  A
C3269      H3278   1.082       .  S
C3270      C3273   1.362       .  A
O3271      C3272   1.332       .  A
C3272      C3273   1.391       .  A
C3273      H3279   1.083       .  S
O3274      C3275   1.331       .  A
C3275      C3276   1.393       .  A
C3276      H3280   1.083       .  S
C3281      C3286   1.380       .  A
C3281      C3282   1.401   1_556  A
C3281      O3287   1.318       .  A
C3282      C3283   1.401       .  A
C3282      H3293   1.082       .  S
C3283      C3292   1.357       .  A
C3283      C3284   1.380       .  A
C3284      C3285   1.408       .  A
C3284      O3290   1.325       .  A
C3285      C3286   1.408   1_554  A
C3285      H3294   1.082       .  S
C3286      C3289   1.367       .  A
O3287      C3288   1.330       .  A
C3288      C3289   1.394       .  A
C3289      H3295   1.082       .  S
O3290      C3291   1.334       .  A
C3291      C3292   1.392       .  A
C3292      H3296   1.083       .  S
C3297      C3302   1.381       .  A
C3297      C3298   1.403       .  A
C3297      O3303   1.322       .  A
C3298      C3299   1.404       .  A
C3298      H3309   1.082       .  S
C3299      C3308   1.359       .  A
C3299      C3300   1.381       .  A
C3300      C3301   1.402       .  A
C3300      O3306   1.322       .  A
C3301      C3302   1.403       .  A
C3301      H3310   1.082       .  S
C3302      C3305   1.358       .  A
O3303      C3304   1.331       .  A
C3304      C3305   1.393       .  A
C3305      H3311   1.083       .  S
O3306      C3307   1.331       .  A
C3307      C3308   1.394       .  A
C3308      H3312   1.083       .  S
C3313      C3318   1.380       .  A
C3313      C3314   1.404       .  A
C3313      O3319   1.316       .  A
C3314      C3315   1.402       .  A
C3314      H3325   1.082       .  S
C3315      C3324   1.365       .  A
C3315      C3316   1.380       .  A
C3316      C3317   1.404       .  A
C3316      O3322   1.315       .  A
C3317      C3318   1.401       .  A
C3317      H3326   1.082       .  S
C3318      C3321   1.364       .  A
O3319      C3320   1.331       .  A
C3320      C3321   1.391       .  A
C3321      H3327   1.083       .  S
O3322      C3323   1.331       .  A
C3323      C3324   1.392       .  A
C3324      H3328   1.082       .  S
C3329      C3334   1.380       .  A
C3329      C3330   1.408       .  A
C3329      O3335   1.323       .  A
C3330      C3331   1.407       .  A
C3330      H3341   1.082       .  S
C3331      C3340   1.367       .  A
C3331      C3332   1.380       .  A
C3332      C3333   1.402       .  A
C3332      O3338   1.316       .  A
C3333      C3334   1.401       .  A
C3333      H3342   1.082       .  S
C3334      C3337   1.360       .  A
O3335      C3336   1.333       .  A
C3336      C3337   1.391       .  A
C3337      H3343   1.083       .  S
O3338      C3339   1.330       .  A
C3339      C3340   1.393       .  A
C3340      H3344   1.082       .  S
C3345      C3350   1.381       .  A
C3345      C3346   1.402       .  A
C3345      O3351   1.318       .  A
C3346      C3347   1.401       .  A
C3346      H3357   1.082       .  S
C3347      C3356   1.360       .  A
C3347      C3348   1.380       .  A
C3348      C3349   1.403       .  A
C3348      O3354   1.319       .  A
C3349      C3350   1.403       .  A
C3349      H3358   1.082       .  S
C3350      C3353   1.361       .  A
O3351      C3352   1.330       .  A
C3352      C3353   1.393       .  A
C3353      H3359   1.083       .  S
O3354      C3355   1.331       .  A
C3355      C3356   1.390       .  A
C3356      H3360   1.083       .  S
C3361      C3366   1.381       .  A
C3361      C3362   1.401       .  A
C3361      O3367   1.316       .  A
C3362      C3363   1.400       .  A
C3362      H3373   1.082       .  S
C3363      C3372   1.358       .  A
C3363      C3364   1.380       .  A
C3364      C3365   1.407       .  A
C3364      O3370   1.322       .  A
C3365      C3366   1.406       .  A
C3365      H3374   1.082       .  S
C3366      C3369   1.366       .  A
O3367      C3368   1.330       .  A
C3368      C3369   1.394       .  A
C3369      H3375   1.083       .  S
O3370      C3371   1.332       .  A
C3371      C3372   1.391       .  A
C3372      H3376   1.083       .  S
C3377      C3382   1.380       .  A
C3377      C3378   1.403       .  A
C3377      O3383   1.319       .  A
C3378      C3379   1.403       .  A
C3378      H3389   1.082       .  S
C3379      C3388   1.361       .  A
C3379      C3380   1.380       .  A
C3380      C3381   1.407       .  A
C3380      O3386   1.322       .  A
C3381      C3382   1.406       .  A
C3381      H3390   1.082       .  S
C3382      C3385   1.366       .  A
O3383      C3384   1.331       .  A
C3384      C3385   1.394       .  A
C3385      H3391   1.083       .  S
O3386      C3387   1.333       .  A
C3387      C3388   1.392       .  A
C3388      H3392   1.083       .  S
C3393      C3398   1.381       .  A
C3393      C3394   1.404       .  A
C3393      O3399   1.319       .  A
C3394      C3395   1.403       .  A
C3394      H3405   1.082       .  S
C3395      C3404   1.364       .  A
C3395      C3396   1.381       .  A
C3396      C3397   1.399       .  A
C3396      O3402   1.314       .  A
C3397      C3398   1.398       .  A
C3397      H3406   1.082       .  S
C3398      C3401   1.357       .  A
O3399      C3400   1.331       .  A
C3400      C3401   1.389       .  A
C3401      H3407   1.083       .  S
O3402      C3403   1.328       .  A
C3403      C3404   1.392       .  A
C3404      H3408   1.083       .  S
C3409      C3414   1.381       .  A
C3409      C3410   1.399       .  A
C3409      O3415   1.315       .  A
C3410      C3411   1.399       .  A
C3410      H3421   1.082       .  S
C3411      C3420   1.357       .  A
C3411      C3412   1.381       .  A
C3412      C3413   1.406       .  A
C3412      O3418   1.322       .  A
C3413      C3414   1.406       .  A
C3413      H3422   1.082       .  S
C3414      C3417   1.365       .  A
O3415      C3416   1.329       .  A
C3416      C3417   1.393       .  A
C3417      H3423   1.083       .  S
O3418      C3419   1.332       .  A
C3419      C3420   1.390       .  A
C3420      H3424   1.083       .  S
C3425      C3430   1.380       .  A
C3425      C3426   1.402       .  A
C3425      O3431   1.315       .  A
C3426      C3427   1.400       .  A
C3426      H3437   1.082       .  S
C3427      C3436   1.363       .  A
C3427      C3428   1.380       .  A
C3428      C3429   1.406       .  A
C3428      O3434   1.318       .  A
C3429      C3430   1.404       .  A
C3429      H3438   1.082       .  S
C3430      C3433   1.366       .  A
O3431      C3432   1.330       .  A
C3432      C3433   1.393       .  A
C3433      H3439   1.083       .  S
O3434      C3435   1.333       .  A
C3435      C3436   1.390       .  A
C3436      H3440   1.082       .  S
C3441      C3446   1.380       .  A
C3441      C3442   1.403       .  A
C3441      O3447   1.321       .  A
C3442      C3443   1.404       .  A
C3442      H3453   1.082       .  S
C3443      C3452   1.360       .  A
C3443      C3444   1.381       .  A
C3444      C3445   1.403       .  A
C3444      O3450   1.321       .  A
C3445      C3446   1.404       .  A
C3445      H3454   1.082       .  S
C3446      C3449   1.360       .  A
O3447      C3448   1.331       .  A
C3448      C3449   1.394       .  A
C3449      H3455   1.083       .  S
O3450      C3451   1.331       .  A
C3451      C3452   1.394       .  A
C3452      H3456   1.083       .  S
C3457      C3462   1.380       .  A
C3457      C3458   1.408       .  A
C3457      O3463   1.323       .  A
C3458      C3459   1.408       .  A
C3458      H3469   1.082       .  S
C3459      C3468   1.367       .  A
C3459      C3460   1.380       .  A
C3460      C3461   1.401       .  A
C3460      O3466   1.317       .  A
C3461      C3462   1.401       .  A
C3461      H3470   1.082       .  S
C3462      C3465   1.359       .  A
O3463      C3464   1.334       .  A
C3464      C3465   1.391       .  A
C3465      H3471   1.083       .  S
O3466      C3467   1.330       .  A
C3467      C3468   1.394       .  A
C3468      H3472   1.083       .  S
C3473      C3478   1.380       .  A
C3473      C3474   1.401       .  A
C3473      O3479   1.317       .  A
C3474      C3475   1.401       .  A
C3474      H3485   1.082       .  S
C3475      C3484   1.360       .  A
C3475      C3476   1.380       .  A
C3476      C3477   1.408       .  A
C3476      O3482   1.322       .  A
C3477      C3478   1.407       .  A
C3477      H3486   1.082       .  S
C3478      C3481   1.367       .  A
O3479      C3480   1.329       .  A
C3480      C3481   1.394       .  A
C3481      H3487   1.083       .  S
O3482      C3483   1.333       .  A
C3483      C3484   1.391       .  A
C3484      H3488   1.083       .  S
C3489      C3494   1.380       .  A
C3489      C3490   1.409       .  A
C3489      O3495   1.324       .  A
C3490      C3491   1.409   1_554  A
C3490      H3501   1.082       .  S
C3491      C3500   1.370       .  A
C3491      C3492   1.380       .  A
C3492      C3493   1.401   1_556  A
C3492      O3498   1.317       .  A
C3493      C3494   1.400       .  A
C3493      H3502   1.082   1_554  S
C3494      C3497   1.358       .  A
O3495      C3496   1.334       .  A
C3496      C3497   1.391       .  A
C3497      H3503   1.083       .  S
O3498      C3499   1.330       .  A
C3499      C3500   1.396       .  A
C3500      H3504   1.082       .  S
C3505      C3510   1.379       .  A
C3505      C3506   1.409       .  A
C3505      O3511   1.323       .  A
C3506      C3507   1.408       .  A
C3506      H3517   1.082       .  S
C3507      C3516   1.370       .  A
C3507      C3508   1.379       .  A
C3508      C3509   1.405       .  A
C3508      O3514   1.319       .  A
C3509      C3510   1.403       .  A
C3509      H3518   1.082       .  S
C3510      C3513   1.364       .  A
O3511      C3512   1.334       .  A
C3512      C3513   1.391       .  A
C3513      H3519   1.082       .  S
O3514      C3515   1.333       .  A
C3515      C3516   1.395       .  A
C3516      H3520   1.082       .  S
C3521      C3526   1.380       .  A
C3521      C3522   1.402       .  A
C3521      O3527   1.318       .  A
C3522      C3523   1.402       .  A
C3522      H3533   1.082       .  S
C3523      C3532   1.360       .  A
C3523      C3524   1.380       .  A
C3524      C3525   1.405       .  A
C3524      O3530   1.321       .  A
C3525      C3526   1.405       .  A
C3525      H3534   1.082       .  S
C3526      C3529   1.364       .  A
O3527      C3528   1.331       .  A
C3528      C3529   1.392       .  A
C3529      H3535   1.082       .  S
O3530      C3531   1.332       .  A
C3531      C3532   1.391       .  A
C3532      H3536   1.083       .  S
C3537      C3542   1.380       .  A
C3537      C3538   1.405       .  A
C3537      O3543   1.319       .  A
C3538      C3539   1.404       .  A
C3538      H3549   1.082       .  S
C3539      C3548   1.364       .  A
C3539      C3540   1.380       .  A
C3540      C3541   1.402       .  A
C3540      O3546   1.317       .  A
C3541      C3542   1.400       .  A
C3541      H3550   1.082       .  S
C3542      C3545   1.360       .  A
O3543      C3544   1.332       .  A
C3544      C3545   1.390       .  A
C3545      H3551   1.082       .  S
O3546      C3547   1.330       .  A
C3547      C3548   1.392       .  A
C3548      H3552   1.083       .  S
C3553      C3558   1.380       .  A
C3553      C3554   1.409   1_556  A
C3553      O3559   1.326       .  A
C3554      C3555   1.409       .  A
C3554      H3565   1.082       .  S
C3555      C3564   1.367       .  A
C3555      C3556   1.381       .  A
C3556      C3557   1.396       .  A
C3556      O3562   1.314       .  A
C3557      C3558   1.396   1_554  A
C3557      H3566   1.083       .  S
C3558      C3561   1.351       .  A
O3559      C3560   1.335       .  A
C3560      C3561   1.389       .  A
C3561      H3567   1.083       .  S
O3562      C3563   1.328       .  A
C3563      C3564   1.395       .  A
C3564      H3568   1.082       .  S
C3569      C3574   1.380       .  A
C3569      C3570   1.404       .  A
C3569      O3575   1.316       .  A
C3570      C3571   1.401       .  A
C3570      H3581   1.082       .  S
C3571      C3580   1.365       .  A
C3571      C3572   1.380       .  A
C3572      C3573   1.405       .  A
C3572      O3578   1.316       .  A
C3573      C3574   1.402       .  A
C3573      H3582   1.082       .  S
C3574      C3577   1.366       .  A
O3575      C3576   1.331       .  A
C3576      C3577   1.392       .  A
C3577      H3583   1.082       .  S
O3578      C3579   1.332       .  A
C3579      C3580   1.391       .  A
C3580      H3584   1.082       .  S
C3585      C3590   1.381       .  A
C3585      C3586   1.402       .  A
C3585      O3591   1.322       .  A
C3586      C3587   1.404       .  A
C3586      H3597   1.082       .  S
C3587      C3596   1.357   1_545  A
C3587      C3588   1.381       .  A
C3588      C3589   1.402       .  A
C3588      O3594   1.322   1_545  A
C3589      C3590   1.403       .  A
C3589      H3598   1.082       .  S
C3590      C3593   1.356       .  A
O3591      C3592   1.331       .  A
C3592      C3593   1.393       .  A
C3593      H3599   1.083       .  S
O3594      C3595   1.330       .  A
C3595      C3596   1.394       .  A
C3596      H3600   1.083       .  S
C3601      C3606   1.380       .  A
C3601      C3602   1.407       .  A
C3601      O3607   1.323       .  A
C3602      C3603   1.407       .  A
C3602      H3613   1.082       .  S
C3603      C3612   1.366       .  A
C3603      C3604   1.380       .  A
C3604      C3605   1.401       .  A
C3604      O3610   1.317       .  A
C3605      C3606   1.401       .  A
C3605      H3614   1.082       .  S
C3606      C3609   1.359       .  A
O3607      C3608   1.333       .  A
C3608      C3609   1.391       .  A
C3609      H3615   1.083       .  S
O3610      C3611   1.330       .  A
C3611      C3612   1.394       .  A
C3612      H3616   1.083       .  S
C3617      C3622   1.380       .  A
C3617      C3618   1.408       .  A
C3617      O3623   1.323       .  A
C3618      C3619   1.407       .  A
C3618      H3629   1.082       .  S
C3619      C3628   1.367       .  A
C3619      C3620   1.380       .  A
C3620      C3621   1.401       .  A
C3620      O3626   1.318       .  A
C3621      C3622   1.400       .  A
C3621      H3630   1.082       .  S
C3622      C3625   1.358       .  A
O3623      C3624   1.333       .  A
C3624      C3625   1.390       .  A
C3625      H3631   1.083       .  S
O3626      C3627   1.330       .  A
C3627      C3628   1.394       .  A
C3628      H3632   1.082       .  S
C3633      C3638   1.380       .  A
C3633      C3634   1.405       .  A
C3633      O3639   1.321       .  A
C3634      C3635   1.405       .  A
C3634      H3645   1.082       .  S
C3635      C3644   1.363       .  A
C3635      C3636   1.380       .  A
C3636      C3637   1.402       .  A
C3636      O3642   1.318       .  A
C3637      C3638   1.401       .  A
C3637      H3646   1.082       .  S
C3638      C3641   1.360       .  A
O3639      C3640   1.332       .  A
C3640      C3641   1.390       .  A
C3641      H3647   1.082       .  S
O3642      C3643   1.330       .  A
C3643      C3644   1.393       .  A
C3644      H3648   1.083       .  S
