geometry optimzed in LAMMPS
_audit_creation_date              2020-12-01 
_audit_creation_method            'lammps2cif' 
_symmetry_space_group_name_H-M    'P1' 
_symmetry_Int_Tables_number       1 
_symmetry_cell_setting            triclinic 
loop_ 
_symmetry_equiv_pos_as_xyz 
  x,y,z 
_cell_length_a                    29.86319628 
_cell_length_b                    35.35954599001049 
_cell_length_c                    35.99346087825121 
_cell_angle_alpha                 90.0005599597186 
_cell_angle_beta                  89.99826343146032 
_cell_angle_gamma                 89.99995587714626 
loop_ 
_atom_site_label 
_atom_site_type_symbol 
_atom_site_fract_x 
_atom_site_fract_y 
_atom_site_fract_z 
_atom_site_charge 
O1          O  0.79085507  0.36730427  0.35376591    -0.80100
C2          C  0.87731105  0.47422426  0.44486930     0.99300
O3          O  0.89069035  0.44056146  0.44066818    -0.69200
O4          O  0.81785942  0.40269943  0.45259080    -0.72800
Al5        Al  0.86041811  0.39980638  0.41502707     1.49000
C6          C  0.77703622  0.39503419  0.44942523     0.94500
O7          O  0.74584221  0.46237781  0.38490597    -0.79000
O8          O  0.84882921  0.45810876  0.31857790    -0.72600
Al9        Al  0.77337908  0.41594453  0.37047274     1.90100
O10         O  0.79750808  0.50096562  0.36491597    -0.71600
O11         O  0.91349492  0.45496283  0.36876190    -0.71500
O12         O  0.85671383  0.49097937  0.41899571    -0.77100
O13         O  0.90744634  0.39406482  0.37980886    -0.75300
O14         O  0.82834475  0.42931333  0.38463465    -1.11500
O15         O  0.83570639  0.35202746  0.39922123    -0.70700
C16         C  0.80836117  0.34262879  0.37421947     1.00100
C17         C  0.75778429  0.49493179  0.37500375     0.96400
Al18       Al  0.85225403  0.47269387  0.36911897     1.55600
O19         O  0.75673327  0.39653004  0.41855953    -0.75300
C20         C  0.93023179  0.42208260  0.36914679     1.00600
C21         C  0.81474258  0.44519994  0.30210379     0.95500
O22         O  0.78128493  0.43249843  0.31983873    -0.80600
O23         O  0.79085292  0.13236697  0.63749313    -0.80100
C24         C  0.87733478  0.02545791  0.54639467     0.99300
O25         O  0.89068096  0.05913263  0.55057052    -0.69200
O26         O  0.81779323  0.09691339  0.53864547    -0.72800
Al27       Al  0.86036729  0.09987975  0.57618929     1.49000
C28         C  0.77697848  0.10460174  0.54183031     0.94500
O29         O  0.74586854  0.03728382  0.60636556    -0.79000
O30         O  0.84885618  0.04162603  0.67269115    -0.72600
Al31       Al  0.77337553  0.08372618  0.62079098     1.90100
O32         O  0.79756027  0.99871966  0.62636376    -0.71600
O33         O  0.91351965  0.04480776  0.62249740    -0.71500
O34         O  0.85677059  0.00870458  0.57228749    -0.77100
O35         O  0.90739606  0.10569016  0.61138357    -0.75300
O36         O  0.82834202  0.07037368  0.60661670    -1.11500
O37         O  0.83560749  0.14765313  0.59197282    -0.70700
C38         C  0.80829872  0.15704544  0.61700663     1.00100
C39         C  0.75783159  0.00473682  0.61627331     0.96400
Al40       Al  0.85229357  0.02701962  0.62215342     1.55600
O41         O  0.75670135  0.10313710  0.57270961    -0.75300
C42         C  0.93021584  0.07770474  0.62207356     1.00600
C43         C  0.81475330  0.05451413  0.68915947     0.95500
O44         O  0.78128549  0.06717963  0.67141915    -0.80600
O45         O  0.21378047  0.43283838  0.32023063    -0.80100
C46         C  0.11711652  0.47449259  0.44483705     0.99300
O47         O  0.13786018  0.49127108  0.41906046    -0.69200
O48         O  0.19726688  0.50126189  0.36511075    -0.72800
Al49       Al  0.14252721  0.47298113  0.36921995     1.49000
C50         C  0.23695994  0.49523330  0.37527638     0.94500
O51         O  0.23787689  0.39694082  0.41906622    -0.79000
O52         O  0.15919692  0.35228114  0.39943874    -0.72600
Al53       Al  0.22147164  0.41630471  0.37089267     1.90100
O54         O  0.17655485  0.40309638  0.45285771    -0.71600
O55         O  0.08748595  0.39428369  0.37968982    -0.71500
O56         O  0.10374795  0.44083489  0.44057260    -0.77100
O57         O  0.08128454  0.45519417  0.36873242    -0.75300
O58         O  0.16642731  0.42962620  0.38483606    -1.11500
O59         O  0.14618602  0.45836590  0.31871027    -0.70700
C60         C  0.18038067  0.44547129  0.30237068     1.00100
C61         C  0.21740199  0.39546828  0.44985966     0.96400
Al62       Al  0.13425704  0.40008984  0.41511005     1.55600
O63         O  0.24883924  0.46274051  0.38539328    -0.75300
C64         C  0.06463224  0.42227504  0.36906064     1.00600
C65         C  0.18666732  0.34291653  0.37450284     0.95500
O66         O  0.20419882  0.36763976  0.35412280    -0.80600
O67         O  0.21375588  0.06723421  0.67095770    -0.80100
C68         C  0.11713864  0.02554300  0.54634085     0.99300
O69         O  0.13790971  0.00877306  0.57210739    -0.69200
O70         O  0.19730600  0.99880362  0.62607116    -0.72800
Al71       Al  0.14255089  0.02705346  0.62195299     1.49000
C72         C  0.23699532  0.00485331  0.61591569     0.94500
O73         O  0.23784217  0.10314534  0.57211731    -0.79000
O74         O  0.15911432  0.14777279  0.59176182    -0.72600
Al75       Al  0.22144992  0.08377463  0.62029294     1.90100
O76         O  0.17651562  0.09698614  0.53833272    -0.71600
O77         O  0.08743782  0.10571487  0.61151359    -0.71500
O78         O  0.10374419  0.05919256  0.55061441    -0.77100
O79         O  0.08129828  0.04479414  0.62243803    -0.75300
O80         O  0.16641583  0.07042716  0.60634842    -1.11500
O81         O  0.14618400  0.04165996  0.67246268    -0.70700
C82         C  0.18036488  0.05456630  0.68880986     1.00100
C83         C  0.21736039  0.10462571  0.54132756     0.96400
Al84       Al  0.13421654  0.09995171  0.57608526     1.55600
O85         O  0.24885772  0.03734632  0.60579661    -0.75300
C86         C  0.06461250  0.07769989  0.62212917     1.00600
C87         C  0.18659193  0.15715245  0.61668518     0.95500
O88         O  0.20415084  0.13243744  0.63705913    -0.80600
O89         O  0.29087950  0.11747183  0.35374773    -0.80100
C90         C  0.37733879  0.22441039  0.44482759     0.99300
O91         O  0.39069421  0.19073709  0.44065636    -0.69200
O92         O  0.31782102  0.15293882  0.45257941    -0.72800
Al93       Al  0.36039698  0.14998009  0.41503742     1.49000
C94         C  0.27700382  0.14526036  0.44939909     0.94500
O95         O  0.24588379  0.21256102  0.38484598    -0.79000
O96         O  0.34888071  0.20822220  0.31853225    -0.72600
Al97       Al  0.27340121  0.16611745  0.37043517     1.90100
O98         O  0.29757364  0.25112909  0.36485245    -0.71600
O99         O  0.41353972  0.20505814  0.36872503    -0.71500
O100        O  0.35677608  0.24115672  0.41893078    -0.77100
O101        O  0.40743134  0.14417625  0.37984424    -0.75300
O102        O  0.32836537  0.17947829  0.38460774    -1.11500
O103        O  0.33565373  0.10219955  0.39925690    -0.70700
C104        C  0.30834159  0.09279897  0.37423000     1.00100
C105        C  0.25784450  0.24510942  0.37494076     0.96400
Al106      Al  0.35230943  0.22283521  0.36906720     1.55600
O107        O  0.25672490  0.14672252  0.41852141    -0.75300
C108        C  0.43024296  0.17216395  0.36914854     1.00600
C109        C  0.31478790  0.19531854  0.30206321     0.95500
O110        O  0.28132001  0.18264830  0.31980230    -0.80600
O111        O  0.29084352  0.38259946  0.63745695    -0.80100
C112        C  0.37728929  0.27566506  0.54634946     0.99300
O113        O  0.39067548  0.30932560  0.55055562    -0.69200
O114        O  0.31785206  0.34719299  0.53863811    -0.72800
Al115      Al  0.36040417  0.35008320  0.57619933     1.49000
C116        C  0.27702889  0.35485759  0.54180180     0.94500
O117        O  0.24580525  0.28752853  0.60633179    -0.79000
O118        O  0.34879251  0.29176548  0.67264093    -0.72600
Al119      Al  0.27335882  0.33395854  0.62075517     1.90100
O120        O  0.29746983  0.24892719  0.62629557    -0.71600
O121        O  0.41346306  0.29491750  0.62246142    -0.71500
O122        O  0.35668153  0.25891282  0.57221964    -0.77100
O123        O  0.40742507  0.35581806  0.61142031    -0.75300
O124        O  0.32832124  0.32057919  0.60659001    -1.11500
O125        O  0.33569861  0.39786812  0.59200085    -0.70700
C126        C  0.30835258  0.40727245  0.61700137     1.00100
C127        C  0.25774343  0.25496930  0.61622210     0.96400
Al128      Al  0.35221994  0.27719206  0.62209860     1.55600
O129        O  0.25672004  0.35336799  0.57266643    -0.75300
C130        C  0.43020353  0.32779676  0.62208167     1.00600
C131        C  0.31471240  0.30468445  0.68911780     0.95500
O132        O  0.28126435  0.31740749  0.67138743    -0.80600
O133        O  0.71380268  0.18267191  0.32027447    -0.80100
C134        C  0.61712420  0.22434744  0.44486255     0.99300
O135        O  0.63790571  0.24112042  0.41910257    -0.69200
O136        O  0.69731784  0.25109295  0.36514507    -0.72800
Al137      Al  0.64256705  0.22283838  0.36925881     1.49000
C138        C  0.73700599  0.24505469  0.37531327     0.94500
O139        O  0.73785051  0.14676133  0.41912411    -0.79000
O140        O  0.65914383  0.10212383  0.39945512    -0.72600
Al141      Al  0.72147774  0.16613156  0.37094294     1.90100
O142        O  0.67650735  0.15291217  0.45289221    -0.71600
O143        O  0.58746856  0.14417110  0.37968126    -0.71500
O144        O  0.60373469  0.19069693  0.44058457    -0.77100
O145        O  0.58131709  0.20509204  0.36876514    -0.75300
O146        O  0.66643469  0.17946961  0.38487158    -1.11500
O147        O  0.64621967  0.20822529  0.31875332    -0.70700
C148        C  0.68041173  0.19532705  0.30241431     1.00100
C149        C  0.71735453  0.14527564  0.44990824     0.96400
Al150      Al  0.63422759  0.14994082  0.41512497     1.55600
O151        O  0.74886520  0.21256221  0.38544862    -0.75300
C152        C  0.56463859  0.17218388  0.36906845     1.00600
C153        C  0.68663402  0.09274978  0.37453836     0.95500
O154        O  0.70419828  0.11746757  0.35417046    -0.80600
O155        O  0.71373985  0.31699436  0.67097840    -0.80100
C156        C  0.61707472  0.27537763  0.54637134     0.99300
O157        O  0.63781182  0.25859141  0.57214616    -0.69200
O158        O  0.69720816  0.24858614  0.62610347    -0.72800
Al159      Al  0.64247678  0.27687629  0.62198884     1.49000
C160        C  0.73690230  0.25460631  0.61593418     0.94500
O161        O  0.73784907  0.35290408  0.57214402    -0.79000
O162        O  0.65917621  0.39757477  0.59178626    -0.72600
Al163      Al  0.72143698  0.33353442  0.62031593     1.90100
O164        O  0.67652675  0.34677225  0.53835262    -0.71600
O165        O  0.58745744  0.35558113  0.61153022    -0.71500
O166        O  0.60371239  0.30903688  0.55063950    -0.77100
O167        O  0.58123970  0.29466982  0.62247409    -0.75300
O168        O  0.66638931  0.32022770  0.60637421    -1.11500
O169        O  0.64613224  0.29149155  0.67249999    -0.70700
C170        C  0.68033252  0.30437366  0.68883976     1.00100
C171        C  0.71737629  0.35439292  0.54135126     0.96400
Al172      Al  0.63422741  0.34977445  0.57610601     1.55600
O173        O  0.74878704  0.28709398  0.60580588    -0.75300
C174        C  0.56459752  0.32759199  0.62215603     1.00600
C175        C  0.68665100  0.40693010  0.61672018     0.95500
O176        O  0.70418065  0.38220082  0.63709377    -0.80600
O177        O  0.78162694  0.43275168  0.17098135    -0.80100
C178        C  0.87828713  0.47442491  0.04638268     0.99300
O179        O  0.85753448  0.49119937  0.07215781    -0.69200
O180        O  0.79812850  0.50117492  0.12611570    -0.72800
Al181      Al  0.85287245  0.47290646  0.12199843     1.49000
C182        C  0.75843779  0.49514452  0.11594676     0.94500
O183        O  0.75754809  0.39684896  0.07213792    -0.79000
O184        O  0.83624509  0.35220273  0.09177859    -0.72600
Al185      Al  0.77394311  0.41621753  0.12031496     1.90100
O186        O  0.81887300  0.40300321  0.03835035    -0.71600
O187        O  0.90793955  0.39422624  0.11153377    -0.71500
O188        O  0.89166499  0.44076962  0.05064673    -0.77100
O189        O  0.91411746  0.45513930  0.12248375    -0.75300
O190        O  0.82898566  0.42954719  0.10637711    -1.11500
O191        O  0.84921854  0.45828453  0.17250763    -0.70700
C192        C  0.81502372  0.44538720  0.18884511     1.00100
C193        C  0.77802704  0.39536620  0.04134629     0.96400
Al194      Al  0.86116937  0.40001625  0.07610690     1.55600
O195        O  0.74656746  0.46265324  0.10581484    -0.75300
C196        C  0.93078086  0.42222521  0.12216294     1.00600
C197        C  0.80876804  0.34283250  0.11670754     0.95500
O198        O  0.79122228  0.36755312  0.13708360    -0.80600
O199        O  0.78159144  0.06708215  0.82027128    -0.80100
C200        C  0.87826366  0.02545621  0.94487274     0.99300
O201        O  0.85749575  0.00867359  0.91911228    -0.69200
O202        O  0.79809376  0.99867871  0.86515506    -0.72800
Al203      Al  0.85283640  0.02694558  0.86926506     1.49000
C204        C  0.75840071  0.00470825  0.87532308     0.94500
O205        O  0.75752032  0.10301026  0.91911274    -0.79000
O206        O  0.83621203  0.14765913  0.89944165    -0.72600
Al207      Al  0.77390646  0.08363369  0.87093629     1.90100
O208        O  0.81885996  0.09687418  0.95288429    -0.71600
O209        O  0.90790290  0.10562990  0.87967987    -0.71500
O210        O  0.89164626  0.05910813  0.94058952    -0.77100
O211        O  0.91408262  0.04470936  0.86877073    -0.75300
O212        O  0.82895183  0.07031106  0.88486963    -1.11500
O213        O  0.84918494  0.04154820  0.81875640    -0.70700
C214        C  0.81498960  0.05443370  0.80241397     1.00100
C215        C  0.77801063  0.10449848  0.94989803     0.96400
Al216      Al  0.86114304  0.09985233  0.91512095     1.55600
O217        O  0.74653482  0.03720461  0.88545330    -0.75300
C218        C  0.93074574  0.07762366  0.86907007     1.00600
C219        C  0.80872546  0.15702119  0.87451963     0.95500
O220        O  0.79117404  0.13229612  0.85415371    -0.80600
O221        O  0.20455776  0.36734662  0.13746348    -0.80100
C222        C  0.11807858  0.47424187  0.04634603     0.99300
O223        O  0.10470143  0.44057911  0.05055522    -0.69200
O224        O  0.17754197  0.40273568  0.03864111    -0.72800
Al225      Al  0.13498863  0.39983324  0.07620158     1.49000
C226        C  0.21836850  0.39508570  0.04180533     0.94500
O227        O  0.24955409  0.46242387  0.10632634    -0.79000
O228        O  0.14656579  0.45815983  0.17264044    -0.72600
Al229      Al  0.22202244  0.41598942  0.12075640     1.90100
O230        O  0.19787594  0.50101251  0.12629325    -0.71600
O231        O  0.08189792  0.45498264  0.12246137    -0.71500
O232        O  0.13867151  0.49100357  0.07221748    -0.77100
O233        O  0.08796940  0.39408390  0.11142225    -0.75300
O234        O  0.16705501  0.42934960  0.10659104    -1.11500
O235        O  0.15971414  0.35205916  0.09200724    -0.70700
C236        C  0.18705990  0.34266670  0.11701027     1.00100
C237        C  0.23760447  0.49497926  0.11621720     0.96400
Al238      Al  0.14313555  0.47272965  0.12209760     1.55600
O239        O  0.23867321  0.39658052  0.07267032    -0.75300
C240        C  0.06517520  0.42209630  0.12208378     1.00600
C241        C  0.18065190  0.44525427  0.18911715     0.95500
O242        O  0.21410812  0.43254423  0.17138679    -0.80600
O243        O  0.20449379  0.13246730  0.85375995    -0.80100
C244        C  0.11806018  0.02549260  0.94482007     0.99300
O245        O  0.10469243  0.05916273  0.94065140    -0.69200
O246        O  0.17754207  0.09699354  0.95258312    -0.72800
Al247      Al  0.13497117  0.09993303  0.91503600     1.49000
C248        C  0.21835797  0.10468030  0.94940654     0.94500
O249        O  0.24952061  0.03738220  0.88484697    -0.79000
O250        O  0.14652854  0.04170341  0.81853006    -0.72600
Al251      Al  0.22198543  0.08382303  0.87044165     1.90100
O252        O  0.19784816  0.99880576  0.86484225    -0.71600
O253        O  0.08186500  0.04483249  0.86872247    -0.71500
O254        O  0.13863842  0.00875454  0.91892488    -0.77100
O255        O  0.08793680  0.10571720  0.87983869    -0.75300
O256        O  0.16702385  0.07044580  0.88460865    -1.11500
O257        O  0.15969416  0.14772450  0.89925910    -0.70700
C258        C  0.18701559  0.15713442  0.87424073     1.00100
C259        C  0.23757297  0.00483223  0.87493432     0.96400
Al260      Al  0.14310220  0.02708176  0.86906256     1.55600
O261        O  0.23864480  0.10321737  0.91853142    -0.75300
C262        C  0.06514229  0.07771851  0.86914497     1.00600
C263        C  0.18061761  0.05462000  0.80206393     0.95500
O264        O  0.21407899  0.06729713  0.81980562    -0.80600
O265        O  0.28165104  0.18271001  0.17095993    -0.80100
C266        C  0.37826322  0.22438228  0.04633155     0.99300
O267        O  0.35750604  0.24115561  0.07210438    -0.69200
O268        O  0.29811872  0.25113293  0.12607399    -0.72800
Al269      Al  0.35286491  0.22287242  0.12194844     1.49000
C270        C  0.25842370  0.24509428  0.11592333     0.94500
O271        O  0.25754024  0.14680050  0.07212358    -0.79000
O272        O  0.33625248  0.10216077  0.09174760    -0.72600
Al273      Al  0.27394752  0.16616938  0.12029650     1.90100
O274        O  0.31885801  0.15295609  0.03832509    -0.71600
O275        O  0.40794625  0.14419680  0.11149028    -0.71500
O276        O  0.39164769  0.19072943  0.05059908    -0.77100
O277        O  0.41411227  0.20511400  0.12242587    -0.75300
O278        O  0.32898270  0.17950585  0.10634320    -1.11500
O279        O  0.34923230  0.20826552  0.17245818    -0.70700
C280        C  0.31504699  0.19537045  0.18880899     1.00100
C281        C  0.27801250  0.14532097  0.04132855     0.96400
Al282      Al  0.36116481  0.14997612  0.07607055     1.55600
O283        O  0.24655367  0.21259958  0.10580347    -0.75300
C284        C  0.43078220  0.17220211  0.12211353     1.00600
C285        C  0.30878050  0.09278809  0.11667857     0.95500
O286        O  0.29123919  0.11750596  0.13706030    -0.80600
O287        O  0.28158386  0.31709718  0.82023506    -0.80100
C288        C  0.37825685  0.27543259  0.94482956     0.99300
O289        O  0.35749804  0.25865569  0.91906089    -0.69200
O290        O  0.29808029  0.24866989  0.86511929    -0.72800
Al291      Al  0.35282872  0.27693879  0.86921820     1.49000
C292        C  0.25839016  0.25470680  0.87528948     0.94500
O293        O  0.25751494  0.35300405  0.91907273    -0.79000
O294        O  0.33621070  0.39764968  0.89942273    -0.72600
Al295      Al  0.27390395  0.33363450  0.87089786     1.90100
O296        O  0.31884535  0.34684932  0.95285150    -0.71600
O297        O  0.40790349  0.35562189  0.87966490    -0.71500
O298        O  0.39163421  0.30908700  0.94055864    -0.77100
O299        O  0.41407656  0.29470695  0.86872051    -0.75300
O300        O  0.32894711  0.32030253  0.88483258    -1.11500
O301        O  0.34916793  0.29154944  0.81870772    -0.70700
C302        C  0.31497812  0.30445540  0.80237166     1.00100
C303        C  0.27799858  0.35448089  0.94986093     0.96400
Al304      Al  0.36113576  0.34983621  0.91509527     1.55600
O305        O  0.24652192  0.28720369  0.88540451    -0.75300
C306        C  0.43074514  0.32761990  0.86904313     1.00600
C307        C  0.30873348  0.40701836  0.87449542     0.95500
O308        O  0.29118514  0.38229688  0.85412338    -0.80600
O309        O  0.70454548  0.11739227  0.13749657    -0.80100
C310        C  0.61808131  0.22431632  0.04640366     0.99300
O311        O  0.60471994  0.19064681  0.05058897    -0.69200
O312        O  0.67757639  0.15282719  0.03866170    -0.72800
Al313      Al  0.63501223  0.14989299  0.07621456     1.49000
C314        C  0.71839285  0.14514379  0.04183490     0.94500
O315        O  0.74955252  0.21246853  0.10635898    -0.79000
O316        O  0.64656899  0.20815983  0.17269554    -0.72600
Al317      Al  0.72202838  0.16603168  0.12078992     1.90100
O318        O  0.69787794  0.25104608  0.12636171    -0.71600
O319        O  0.58189928  0.20500353  0.12250837    -0.71500
O320        O  0.63866289  0.24106830  0.07228781    -0.77100
O321        O  0.58798512  0.14411447  0.11141979    -0.75300
O322        O  0.66706261  0.17939616  0.10662572    -1.11500
O323        O  0.65974822  0.10211304  0.09200590    -0.70700
C324        C  0.68706868  0.09271999  0.11702446     1.00100
C325        C  0.73760280  0.24502051  0.11626597     0.96400
Al326      Al  0.64313468  0.22276251  0.12215754     1.55600
O327        O  0.73868413  0.14661670  0.07270631    -0.75300
C328        C  0.56518046  0.17211543  0.12209473     1.00600
C329        C  0.68066458  0.19525606  0.18916109     0.95500
O330        O  0.71412765  0.18258064  0.17141897    -0.80600
O331        O  0.70451239  0.38246527  0.85376681    -0.80100
C332        C  0.61805929  0.27554948  0.94487363     0.99300
O333        O  0.60468680  0.30921509  0.94068220    -0.69200
O334        O  0.67754313  0.34704584  0.95260065    -0.72800
Al335      Al  0.63497304  0.34996741  0.91504806     1.49000
C336        C  0.71836460  0.35471460  0.94942393     0.94500
O337        O  0.74951516  0.28738421  0.88488428    -0.79000
O338        O  0.64651594  0.29168160  0.81857660    -0.72600
Al339      Al  0.72198795  0.33382257  0.87046349     1.90100
O340        O  0.69783347  0.24880707  0.86490085    -0.71600
O341        O  0.58186097  0.29484461  0.86877020    -0.71500
O342        O  0.63863873  0.25879484  0.91898933    -0.77100
O343        O  0.58794121  0.35573679  0.87984191    -0.75300
O344        O  0.66702402  0.32046099  0.88463711    -1.11500
O345        O  0.65970166  0.39774358  0.89925170    -0.70700
C346        C  0.68703143  0.40714026  0.87423670     1.00100
C347        C  0.73756135  0.25483362  0.87498135     0.96400
Al348      Al  0.64309524  0.27709073  0.86911606     1.55600
O349        O  0.73865347  0.35323006  0.91855001    -0.75300
C350        C  0.56514364  0.32773276  0.86916451     1.00600
C351        C  0.68060566  0.30458001  0.80209824     0.95500
O352        O  0.71406854  0.31727442  0.81982924    -0.80600
C353        C  0.61181787  0.24276760  0.01093308    -0.11500
C354        C  0.61181079  0.25710528  0.98034983    -0.13100
C355        C  0.47772191  0.33217080  0.86139727    -0.11500
C356        C  0.51817390  0.33223029  0.86145476    -0.13100
C357        C  0.47775125  0.16765746  0.12978672    -0.11500
C358        C  0.51820379  0.16761268  0.12976774    -0.13100
C359        C  0.38466537  0.25704761  0.98028548    -0.11500
C360        C  0.38466585  0.24277024  0.01087614    -0.13100
C361        C  0.29173136  0.44528730  0.87294853    -0.11500
C362        C  0.26945282  0.47396519  0.87423241    -0.13100
C363        C  0.20404430  0.19536393  0.87281588    -0.11500
C364        C  0.22641736  0.22395366  0.87434825    -0.13100
C365        C  0.24061480  0.11829791  0.98148246    -0.11500
C366        C  0.25592436  0.13173433  0.00915828    -0.13100
C367        C  0.24062171  0.38148122  0.00972382    -0.11500
C368        C  0.25592163  0.36805737  0.98203904    -0.13100
C369        C  0.11180979  0.00702451  0.98028519    -0.11500
C370        C  0.11181468  0.49267806  0.01086715    -0.13100
C371        C  0.20408677  0.30443779  0.11844244    -0.11500
C372        C  0.22645106  0.27584500  0.11689269    -0.13100
C373        C  0.29177322  0.05452104  0.11821591    -0.11500
C374        C  0.26948980  0.02584633  0.11692259    -0.13100
C375        C  0.01816983  0.08221988  0.86145065    -0.11500
C376        C  0.97771873  0.08217107  0.86140945    -0.13100
C377        C  0.75593896  0.11808261  0.98207768    -0.11500
C378        C  0.74064406  0.13151954  0.00975851    -0.13100
C379        C  0.79171809  0.19528820  0.87297492    -0.11500
C380        C  0.76944126  0.22396540  0.87426815    -0.13100
C381        C  0.72643326  0.47395539  0.87435876    -0.11500
C382        C  0.70406483  0.44536644  0.87280939    -0.13100
C383        C  0.97775134  0.41766973  0.12982594    -0.11500
C384        C  0.01820298  0.41760789  0.12978543    -0.13100
C385        C  0.88468570  0.49281127  0.01092612    -0.11500
C386        C  0.88468117  0.00708138  0.98033247    -0.13100
C387        C  0.74062896  0.36833442  0.98149893    -0.11500
C388        C  0.75594413  0.38177371  0.00917243    -0.13100
C389        C  0.72647182  0.02590448  0.11691145    -0.11500
C390        C  0.70410848  0.05448609  0.11845646    -0.13100
C391        C  0.76948302  0.27588756  0.11696594    -0.11500
C392        C  0.79176362  0.30456568  0.11825083    -0.13100
C393        C  0.68142654  0.30447636  0.72871366    -0.11500
C394        C  0.68151642  0.30455911  0.76221877    -0.13100
C395        C  0.68151269  0.19526179  0.26254249    -0.11500
C396        C  0.68158346  0.19523326  0.22903832    -0.13100
C397        C  0.61067958  0.25699991  0.51091087    -0.11500
C398        C  0.61069798  0.24273046  0.48031664    -0.13100
C399        C  0.31379579  0.30465473  0.72899524    -0.11500
C400        C  0.31388287  0.30456445  0.76249965    -0.13100
C401        C  0.47717873  0.33226275  0.62978031    -0.11500
C402        C  0.51762979  0.33217230  0.62981955    -0.13100
C403        C  0.31395589  0.19531490  0.22868119    -0.11500
C404        C  0.31387894  0.19529078  0.26218570    -0.13100
C405        C  0.51766361  0.16765602  0.36141029    -0.11500
C406        C  0.47721180  0.16763695  0.36145261    -0.13100
C407        C  0.38356296  0.25722069  0.51087564    -0.11500
C408        C  0.38358100  0.24287285  0.48029579    -0.13100
C409        C  0.18145612  0.05462677  0.72868206    -0.11500
C410        C  0.18153080  0.05465224  0.76218634    -0.13100
C411        C  0.29133876  0.44550675  0.61842830    -0.11500
C412        C  0.26897931  0.47410384  0.61687885    -0.13100
C413        C  0.20358054  0.19542599  0.61822283    -0.11500
C414        C  0.22585265  0.22410882  0.61692871    -0.13100
C415        C  0.25473907  0.13165061  0.48147387    -0.11500
C416        C  0.23943600  0.11821604  0.50915329    -0.13100
C417        C  0.18156510  0.44528235  0.22899444    -0.11500
C418        C  0.18147597  0.44536751  0.26249870    -0.13100
C419        C  0.23948745  0.38189719  0.48203561    -0.11500
C420        C  0.25478514  0.36847161  0.50971976    -0.13100
C421        C  0.11072853  0.00715516  0.51088675    -0.11500
C422        C  0.11071924  0.49287891  0.48029392    -0.13100
C423        C  0.20368272  0.30465337  0.37295487    -0.11500
C424        C  0.22596885  0.27597987  0.37423658    -0.13100
C425        C  0.29130456  0.05457419  0.37279709    -0.11500
C426        C  0.26893090  0.02598606  0.37432990    -0.13100
C427        C  0.81383020  0.05452881  0.72903713    -0.11500
C428        C  0.81389508  0.05449576  0.76254164    -0.13100
C429        C  0.97718513  0.08223788  0.62975834    -0.11500
C430        C  0.01763761  0.08222276  0.62979094    -0.13100
C431        C  0.75471621  0.11822988  0.50976088    -0.11500
C432        C  0.73941706  0.13167793  0.48208678    -0.13100
C433        C  0.79124269  0.19526378  0.61843778    -0.11500
C434        C  0.76886346  0.22384785  0.61689514    -0.13100
C435        C  0.70367343  0.44519076  0.61827181    -0.11500
C436        C  0.72595964  0.47386337  0.61698669    -0.13100
C437        C  0.81392300  0.44528775  0.22871910    -0.11500
C438        C  0.81383074  0.44521333  0.26222433    -0.13100
C439        C  0.97720872  0.41761217  0.36145011    -0.11500
C440        C  0.01766090  0.41770092  0.36140596    -0.13100
C441        C  0.88357766  0.49266613  0.48034392    -0.11500
C442        C  0.88358793  0.00700390  0.51092449    -0.13100
C443        C  0.75478391  0.38141079  0.48150370    -0.11500
C444        C  0.73946994  0.36797481  0.50917926    -0.13100
C445        C  0.72589982  0.02579601  0.37429254    -0.11500
C446        C  0.70362829  0.05447780  0.37300010    -0.13100
C447        C  0.76898173  0.27580286  0.37434450    -0.11500
C448        C  0.79134295  0.30439731  0.37279108    -0.13100
O449        O  0.79085178  0.86729887  0.35376848    -0.80100
C450        C  0.87731025  0.97422280  0.44486734     0.99300
O451        O  0.89068963  0.94055976  0.44066668    -0.69200
O452        O  0.81785986  0.90269572  0.45258935    -0.72800
Al453      Al  0.86041883  0.89980387  0.41502566     1.49000
C454        C  0.77703547  0.89503431  0.44942444     0.94500
O455        O  0.74584126  0.96237668  0.38490013    -0.79000
O456        O  0.84883046  0.95810428  0.31857650    -0.72600
Al457      Al  0.77337863  0.91594154  0.37047129     1.90100
O458        O  0.79750887  0.00096315  0.36491170    -0.71600
O459        O  0.91349534  0.95496106  0.36876109    -0.71500
O460        O  0.85671271  0.99097727  0.41899339    -0.77100
O461        O  0.90744814  0.89406307  0.37980753    -0.75300
O462        O  0.82834466  0.92931032  0.38463303    -1.11500
O463        O  0.83570885  0.85202422  0.39922049    -0.70700
C464        C  0.80836136  0.84262431  0.37422107     1.00100
C465        C  0.75778440  0.99493059  0.37499806     0.96400
Al466      Al  0.85225408  0.97269087  0.36911685     1.55600
O467        O  0.75673188  0.89653171  0.41855910    -0.75300
C468        C  0.93023323  0.92208133  0.36914615     1.00600
C469        C  0.81474525  0.94519322  0.30210203     0.95500
O470        O  0.78128732  0.93249114  0.31983649    -0.80600
O471        O  0.79084640  0.63237087  0.63748866    -0.80100
C472        C  0.87733411  0.52545901  0.54639711     0.99300
O473        O  0.89068096  0.55913343  0.55057276    -0.69200
O474        O  0.81779524  0.59691593  0.53864652    -0.72800
Al475      Al  0.86036795  0.59988131  0.57619103     1.49000
C476        C  0.77697908  0.60459955  0.54182937     0.94500
O477        O  0.74586771  0.53728258  0.60636973    -0.79000
O478        O  0.84885558  0.54162954  0.67269247    -0.72600
Al479      Al  0.77337376  0.58372727  0.62079073     1.90100
O480        O  0.79756119  0.49872051  0.62636750    -0.71600
O481        O  0.91351936  0.54480875  0.62249879    -0.71500
O482        O  0.85676956  0.50870578  0.57228977    -0.77100
O483        O  0.90739663  0.60569116  0.61138615    -0.75300
O484        O  0.82834124  0.57037546  0.60661790    -1.11500
O485        O  0.83560907  0.64765521  0.59197334    -0.70700
C486        C  0.80829654  0.65704862  0.61700396     1.00100
C487        C  0.75783211  0.50473613  0.61627799     0.96400
Al488      Al  0.85229306  0.52702155  0.62215549     1.55600
O489        O  0.75669974  0.60313272  0.57270774    -0.75300
C490        C  0.93021599  0.57770536  0.62207508     1.00600
C491        C  0.81475361  0.55452005  0.68916047     0.95500
O492        O  0.78128585  0.56718577  0.67142002    -0.80600
O493        O  0.21378257  0.93283863  0.32022963    -0.80100
C494        C  0.11711962  0.97449103  0.44483896     0.99300
O495        O  0.13786442  0.99126963  0.41906321    -0.69200
O496        O  0.19727156  0.00126052  0.36511448    -0.72800
Al497      Al  0.14253128  0.97298139  0.36922198     1.49000
C498        C  0.23696518  0.99523005  0.37527795     0.94500
O499        O  0.23787972  0.89693622  0.41906356    -0.79000
O500        O  0.15919849  0.85228012  0.39943727    -0.72600
Al501      Al  0.22147379  0.91630230  0.37089078     1.90100
O502        O  0.17655936  0.90309422  0.45285675    -0.71600
O503        O  0.08748804  0.89428430  0.37969013    -0.71500
O504        O  0.10375169  0.94083324  0.44057383    -0.77100
O505        O  0.08128801  0.95519509  0.36873346    -0.75300
O506        O  0.16643038  0.92962529  0.38483594    -1.11500
O507        O  0.14618986  0.95836935  0.31871146    -0.70700
C508        C  0.18038369  0.94547506  0.30237087     1.00100
C509        C  0.21740600  0.89546502  0.44985759     0.96400
Al510      Al  0.13426010  0.90008885  0.41510982     1.55600
O511        O  0.24884414  0.96273648  0.38539226    -0.75300
C512        C  0.06463496  0.92227615  0.36906134     1.00600
C513        C  0.18666660  0.84291540  0.37449992     0.95500
O514        O  0.20419755  0.86763850  0.35411941    -0.80600
O515        O  0.21375650  0.56723462  0.67095833    -0.80100
C516        C  0.11714251  0.52554475  0.54633896     0.99300
O517        O  0.13791397  0.50877474  0.57210496    -0.69200
O518        O  0.19730819  0.49880568  0.62606917    -0.72800
Al519      Al  0.14255374  0.52705377  0.62195106     1.49000
C520        C  0.23700091  0.50485149  0.61591529     0.94500
O521        O  0.23784477  0.60314842  0.57211835    -0.79000
O522        O  0.15911415  0.64777437  0.59176399    -0.72600
Al523      Al  0.22145173  0.58377646  0.62029378     1.90100
O524        O  0.17651849  0.59699034  0.53833326    -0.71600
O525        O  0.08743872  0.60571422  0.61151355    -0.71500
O526        O  0.10374795  0.55919436  0.55061285    -0.77100
O527        O  0.08130036  0.54479315  0.62243591    -0.75300
O528        O  0.16641808  0.57042847  0.60634813    -1.11500
O529        O  0.14618549  0.54165844  0.67246110    -0.70700
C530        C  0.18036580  0.55456469  0.68880955     1.00100
C531        C  0.21736324  0.60462942  0.54132857     0.96400
Al532      Al  0.13421847  0.59995334  0.57608554     1.55600
O533        O  0.24886067  0.53734991  0.60579695    -0.75300
C534        C  0.06461420  0.57769858  0.62212803     1.00600
C535        C  0.18659137  0.65715418  0.61668757     0.95500
O536        O  0.20415158  0.63243895  0.63706065    -0.80600
O537        O  0.29088310  0.61747377  0.35374414    -0.80100
C538        C  0.37733591  0.72441325  0.44482520     0.99300
O539        O  0.39069506  0.69074121  0.44065288    -0.69200
O540        O  0.31782324  0.65294188  0.45257759    -0.72800
Al541      Al  0.36039828  0.64998268  0.41503487     1.49000
C542        C  0.27700680  0.64526117  0.44939762     0.94500
O543        O  0.24588437  0.71256066  0.38484617    -0.79000
O544        O  0.34888113  0.70822161  0.31852929    -0.72600
Al545      Al  0.27340232  0.66611797  0.37043341     1.90100
O546        O  0.29757144  0.75112869  0.36484728    -0.71600
O547        O  0.41353987  0.70506115  0.36872291    -0.71500
O548        O  0.35677338  0.74115947  0.41892809    -0.77100
O549        O  0.40743151  0.64417894  0.37984083    -0.75300
O550        O  0.32836598  0.67947987  0.38460525    -1.11500
O551        O  0.33565438  0.60220114  0.39925514    -0.70700
C552        C  0.30834257  0.59280074  0.37422760     1.00100
C553        C  0.25784328  0.74510851  0.37493785     0.96400
Al554      Al  0.35230869  0.72283675  0.36906394     1.55600
O555        O  0.25672768  0.64672107  0.41851995    -0.75300
C556        C  0.43024326  0.67216710  0.36914569     1.00600
C557        C  0.31478737  0.69531903  0.30206098     0.95500
O558        O  0.28131896  0.68265043  0.31980060    -0.80600
O559        O  0.29084478  0.88260061  0.63745829    -0.80100
C560        C  0.37728587  0.77566274  0.54635261     0.99300
O561        O  0.39067609  0.80932209  0.55055957    -0.69200
O562        O  0.31785563  0.84719208  0.53863949    -0.72800
Al563      Al  0.36040598  0.85008179  0.57620194     1.49000
C564        C  0.27703281  0.85485798  0.54180199     0.94500
O565        O  0.24580462  0.78753029  0.60633128    -0.79000
O566        O  0.34879079  0.79176853  0.67264393    -0.72600
Al567      Al  0.27335875  0.83395984  0.62075557     1.90100
O568        O  0.29746621  0.74892935  0.62630125    -0.71600
O569        O  0.41346209  0.79491526  0.62246437    -0.71500
O570        O  0.35667792  0.75891108  0.57222311    -0.77100
O571        O  0.40742525  0.85581605  0.61142420    -0.75300
O572        O  0.32832105  0.82057926  0.60659219    -1.11500
O573        O  0.33570019  0.89786882  0.59200302    -0.70700
C574        C  0.30835611  0.90726905  0.61700157     1.00100
C575        C  0.25774070  0.75497147  0.61622518     0.96400
Al576      Al  0.35221780  0.77719214  0.62210233     1.55600
O577        O  0.25672274  0.85336989  0.57266608    -0.75300
C578        C  0.43020358  0.82779439  0.62208534     1.00600
C579        C  0.31470952  0.80468691  0.68911955     0.95500
O580        O  0.28126149  0.81740860  0.67138819    -0.80600
O581        O  0.71379869  0.68266739  0.32027353    -0.80100
C582        C  0.61712435  0.72434559  0.44486575     0.99300
O583        O  0.63790745  0.74111797  0.41910615    -0.69200
O584        O  0.69732010  0.75108945  0.36514909    -0.72800
Al585      Al  0.64256782  0.72283692  0.36926172     1.49000
C586        C  0.73700872  0.74504888  0.37531445     0.94500
O587        O  0.73784849  0.64675469  0.41912205    -0.79000
O588        O  0.65914052  0.60212177  0.39945812    -0.72600
Al589      Al  0.72147477  0.66612619  0.37094157     1.90100
O590        O  0.67650799  0.65291028  0.45289305    -0.71600
O591        O  0.58746625  0.64417056  0.37968453    -0.71500
O592        O  0.60373444  0.69069539  0.44058744    -0.77100
O593        O  0.58131770  0.70509182  0.36876757    -0.75300
O594        O  0.66643356  0.67946705  0.38487287    -1.11500
O595        O  0.64621863  0.70822584  0.31875528    -0.70700
C596        C  0.68040841  0.69532548  0.30241479     1.00100
C597        C  0.71735446  0.64527085  0.44990729     0.96400
Al598      Al  0.63422627  0.64993926  0.41512733     1.55600
O599        O  0.74886738  0.71255506  0.38544635    -0.75300
C600        C  0.56463801  0.67218400  0.36907052     1.00600
C601        C  0.68662812  0.59274700  0.37453983     0.95500
O602        O  0.70418945  0.61746375  0.35416931    -0.80600
O603        O  0.71374019  0.81700034  0.67097876    -0.80100
C604        C  0.61707243  0.77537800  0.54637330     0.99300
O605        O  0.63781107  0.75859298  0.57214804    -0.69200
O606        O  0.69721034  0.74859018  0.62610285    -0.72800
Al607      Al  0.64247782  0.77687872  0.62199026     1.49000
C608        C  0.73690413  0.75461142  0.61593348     0.94500
O609        O  0.73784542  0.85290898  0.57214333    -0.79000
O610        O  0.65917214  0.89757711  0.59178388    -0.72600
Al611      Al  0.72143523  0.83353965  0.62031576     1.90100
O612        O  0.67652351  0.84677338  0.53835191    -0.71600
O613        O  0.58745520  0.85558226  0.61153060    -0.71500
O614        O  0.60370953  0.80903708  0.55064099    -0.77100
O615        O  0.58124077  0.79467106  0.62247733    -0.75300
O616        O  0.66638810  0.82023056  0.60637454    -1.11500
O617        O  0.64613468  0.79149400  0.67250131    -0.70700
C618        C  0.68033435  0.80437779  0.68884076     1.00100
C619        C  0.71737259  0.85439620  0.54135041     0.96400
Al620      Al  0.63422445  0.84977574  0.57610581     1.55600
O621        O  0.74878804  0.78709994  0.60580647    -0.75300
C622        C  0.56459672  0.82759276  0.62215836     1.00600
C623        C  0.68664662  0.90693367  0.61671784     0.95500
O624        O  0.70417572  0.88220550  0.63709268    -0.80600
O625        O  0.78163127  0.93275102  0.17098001    -0.80100
C626        C  0.87829364  0.97442522  0.04638327     0.99300
O627        O  0.85754117  0.99119993  0.07215858    -0.69200
O628        O  0.79813425  0.00117657  0.12611685    -0.72800
Al629      Al  0.85287820  0.97290588  0.12199880     1.49000
C630        C  0.75844644  0.99514259  0.11594725     0.94500
O631        O  0.75755216  0.89685232  0.07213623    -0.79000
O632        O  0.83624605  0.85220293  0.09177555    -0.72600
Al633      Al  0.77394719  0.91621892  0.12031357     1.90100
O634        O  0.81887761  0.90300641  0.03834913    -0.71600
O635        O  0.90794197  0.89422410  0.11153280    -0.71500
O636        O  0.89167088  0.94076992  0.05064708    -0.77100
O637        O  0.91412207  0.95513698  0.12248379    -0.75300
O638        O  0.82899010  0.92954764  0.10637634    -1.11500
O639        O  0.84922371  0.95828231  0.17250738    -0.70700
C640        C  0.81502892  0.94538453  0.18884430     1.00100
C641        C  0.77803133  0.89536994  0.04134450     0.96400
Al642      Al  0.86117297  0.90001657  0.07610565     1.55600
O643        O  0.74657287  0.96265690  0.10581488    -0.75300
C644        C  0.93078461  0.92222246  0.12216250     1.00600
C645        C  0.80876870  0.84283305  0.11670447     0.95500
O646        O  0.79122448  0.86755382  0.13708113    -0.80600
O647        O  0.78158881  0.56708215  0.82027178    -0.80100
C648        C  0.87826044  0.52545600  0.94487226     0.99300
O649        O  0.85749398  0.50867290  0.91911110    -0.69200
O650        O  0.79809333  0.49867557  0.86515261    -0.72800
Al651      Al  0.85283492  0.52694557  0.86926427     1.49000
C652        C  0.75840336  0.50470739  0.87532210     0.94500
O653        O  0.75751512  0.60300423  0.91911436    -0.79000
O654        O  0.83620811  0.64765838  0.89944065    -0.72600
Al655      Al  0.77390193  0.58363064  0.87093737     1.90100
O656        O  0.81885726  0.59687435  0.95288391    -0.71600
O657        O  0.90789903  0.60563044  0.87967939    -0.71500
O658        O  0.89164257  0.55910813  0.94058934    -0.77100
O659        O  0.91408036  0.54471007  0.86877108    -0.75300
O660        O  0.82894849  0.57031022  0.88486959    -1.11500
O661        O  0.84918360  0.54155010  0.81875638    -0.70700
C662        C  0.81498850  0.55443623  0.80241423     1.00100
C663        C  0.77800700  0.60449552  0.94989883     0.96400
Al664      Al  0.86113939  0.59985222  0.91512046     1.55600
O665        O  0.74653332  0.53719808  0.88545254    -0.75300
C666        C  0.93074311  0.57762438  0.86907023     1.00600
C667        C  0.80871916  0.65702025  0.87452071     0.95500
O668        O  0.79116390  0.63229535  0.85415688    -0.80600
O669        O  0.20455669  0.86735302  0.13746781    -0.80100
C670        C  0.11807841  0.97424409  0.04634523     0.99300
O671        O  0.10470267  0.94058120  0.05055448    -0.69200
O672        O  0.17754638  0.90274166  0.03864134    -0.72800
Al673      Al  0.13499204  0.89983667  0.07620102     1.49000
C674        C  0.21837185  0.89508850  0.04180704     0.94500
O675        O  0.24955306  0.96242748  0.10632453    -0.79000
O676        O  0.14656536  0.95816486  0.17264047    -0.72600
Al677      Al  0.22202291  0.91599438  0.12075768     1.90100
O678        O  0.19787508  0.00101665  0.12629193    -0.71600
O679        O  0.08189818  0.95498371  0.12246094    -0.71500
O680        O  0.13866999  0.99100679  0.07221677    -0.77100
O681        O  0.08797315  0.89408514  0.11142075    -0.75300
O682        O  0.16705583  0.92935383  0.10659121    -1.11500
O683        O  0.15971992  0.85206368  0.09200746    -0.70700
C684        C  0.18706254  0.84267226  0.11701316     1.00100
C685        C  0.23760361  0.99498291  0.11621565     0.96400
Al686      Al  0.14313475  0.97273335  0.12209710     1.55600
O687        O  0.23867484  0.89658183  0.07267283    -0.75300
C688        C  0.06517704  0.92209654  0.12208283     1.00600
C689        C  0.18065289  0.94526219  0.18911722     0.95500
O690        O  0.21410939  0.93255291  0.17138695    -0.80600
O691        O  0.20448560  0.63246421  0.85375535    -0.80100
C692        C  0.11805729  0.52549189  0.94482192     0.99300
O693        O  0.10469042  0.55916223  0.94065325    -0.69200
O694        O  0.17754133  0.59699264  0.95258257    -0.72800
Al695      Al  0.13496876  0.59993175  0.91503646     1.49000
C696        C  0.21835611  0.60468316  0.94940400     0.94500
O697        O  0.24951702  0.53738275  0.88484820    -0.79000
O698        O  0.14652502  0.54169892  0.81853030    -0.72600
Al699      Al  0.22198080  0.58382187  0.87044000     1.90100
O700        O  0.19784530  0.49880404  0.86484551    -0.71600
O701        O  0.08186151  0.54483105  0.86872297    -0.71500
O702        O  0.13863436  0.50875340  0.91892625    -0.77100
O703        O  0.08793365  0.60571568  0.87984049    -0.75300
O704        O  0.16702010  0.57044402  0.88460865    -1.11500
O705        O  0.15969151  0.64772276  0.89925784    -0.70700
C706        C  0.18701040  0.65713192  0.87423723     1.00100
C707        C  0.23756989  0.50483205  0.87493739     0.96400
Al708      Al  0.14309850  0.52707950  0.86906377     1.55600
O709        O  0.23864102  0.60322049  0.91852809    -0.75300
C710        C  0.06513879  0.57771734  0.86914619     1.00600
C711        C  0.18061423  0.55461453  0.80206365     0.95500
O712        O  0.21407532  0.56729239  0.81980530    -0.80600
O713        O  0.28164929  0.68271205  0.17095727    -0.80100
C714        C  0.37826374  0.72438266  0.04633102     0.99300
O715        O  0.35750725  0.74115682  0.07210379    -0.69200
O716        O  0.29812152  0.75113600  0.12607474    -0.72800
Al717      Al  0.35286564  0.72287335  0.12194765     1.49000
C718        C  0.25842625  0.74509952  0.11592366     0.94500
O719        O  0.25753750  0.64680798  0.07211904    -0.79000
O720        O  0.33624894  0.60216193  0.09174643    -0.72600
Al721      Al  0.27394476  0.66617369  0.12029307     1.90100
O722        O  0.31885801  0.65295768  0.03832299    -0.71600
O723        O  0.40794372  0.64419658  0.11149043    -0.71500
O724        O  0.39164772  0.69072965  0.05059896    -0.77100
O725        O  0.41411233  0.70511369  0.12242454    -0.75300
O726        O  0.32898141  0.67950764  0.10634154    -1.11500
O727        O  0.34923207  0.70826525  0.17245681    -0.70700
C728        C  0.31504571  0.69537095  0.18880674     1.00100
C729        C  0.27801113  0.64532668  0.04132486     0.96400
Al730      Al  0.36116319  0.64997690  0.07606967     1.55600
O731        O  0.24655484  0.71260610  0.10580142    -0.75300
C732        C  0.43078061  0.67220160  0.12211272     1.00600
C733        C  0.30877459  0.59278956  0.11667559     0.95500
O734        O  0.29123044  0.61750778  0.13705534    -0.80600
O735        O  0.28157861  0.81709279  0.82023735    -0.80100
C736        C  0.37825529  0.77542947  0.94482811     0.99300
O737        O  0.35749625  0.75865225  0.91905963    -0.69200
O738        O  0.29807832  0.74866675  0.86511691    -0.72800
Al739      Al  0.35282663  0.77693622  0.86921734     1.49000
C740        C  0.25838865  0.75470239  0.87528920     0.94500
O741        O  0.25751253  0.85299946  0.91907573    -0.79000
O742        O  0.33620822  0.89764655  0.89942113    -0.72600
Al743      Al  0.27390004  0.83362989  0.87090036     1.90100
O744        O  0.31884508  0.84684707  0.95285195    -0.71600
O745        O  0.40790057  0.85561906  0.87966315    -0.71500
O746        O  0.39163237  0.80908406  0.94055714    -0.77100
O747        O  0.41407527  0.79470420  0.86872046    -0.75300
O748        O  0.32894442  0.82029934  0.88483294    -1.11500
O749        O  0.34916506  0.79154915  0.81870773    -0.70700
C750        C  0.31497380  0.80445395  0.80237302     1.00100
C751        C  0.27799800  0.85447783  0.94986289     0.96400
Al752      Al  0.36113373  0.84983342  0.91509437     1.55600
O753        O  0.24652093  0.78719819  0.88540804    -0.75300
C754        C  0.43074336  0.82761712  0.86904325     1.00600
C755        C  0.30872940  0.90701489  0.87449468     0.95500
O756        O  0.29117792  0.88229289  0.85412514    -0.80600
O757        O  0.70454432  0.61739244  0.13749491    -0.80100
C758        C  0.61807952  0.72431699  0.04640232     0.99300
O759        O  0.60471956  0.69064685  0.05058661    -0.69200
O760        O  0.67757648  0.65282749  0.03866108    -0.72800
Al761      Al  0.63501153  0.64989321  0.07621288     1.49000
C762        C  0.71839302  0.64514445  0.04183477     0.94500
O763        O  0.74955125  0.71246922  0.10636067    -0.79000
O764        O  0.64656622  0.70816083  0.17269445    -0.72600
Al765      Al  0.72202673  0.66603193  0.12079001     1.90100
O766        O  0.69787547  0.75104722  0.12636018    -0.71600
O767        O  0.58189738  0.70500320  0.12250656    -0.71500
O768        O  0.63866104  0.74106846  0.07228664    -0.77100
O769        O  0.58798369  0.64411436  0.11141725    -0.75300
O770        O  0.66706116  0.67939643  0.10662473    -1.11500
O771        O  0.65974600  0.60211426  0.09200381    -0.70700
C772        C  0.68706854  0.59271618  0.11702368     1.00100
C773        C  0.73760084  0.74502144  0.11626562     0.96400
Al774      Al  0.64313262  0.72276283  0.12215613     1.55600
O775        O  0.73868397  0.64661819  0.07270642    -0.75300
C776        C  0.56517924  0.67211499  0.12209246     1.00600
C777        C  0.68066062  0.69525604  0.18916075     0.95500
O778        O  0.71412380  0.68257971  0.17141937    -0.80600
O779        O  0.70451753  0.88246947  0.85376821    -0.80100
C780        C  0.61806046  0.77555562  0.94487595     0.99300
O781        O  0.60469035  0.80922199  0.94068503    -0.69200
O782        O  0.67754570  0.84705499  0.95259992    -0.72800
Al783      Al  0.63497478  0.84997344  0.91504811     1.49000
C784        C  0.71836815  0.85472030  0.94942338     0.94500
O785        O  0.74951794  0.78738732  0.88488319    -0.79000
O786        O  0.64651811  0.79168415  0.81857820    -0.72600
Al787      Al  0.72199076  0.83382655  0.87046374     1.90100
O788        O  0.69783398  0.74881058  0.86490383    -0.71600
O789        O  0.58186274  0.79484823  0.86877237    -0.71500
O790        O  0.63864006  0.75880068  0.91899187    -0.77100
O791        O  0.58794089  0.85574051  0.87984292    -0.75300
O792        O  0.66702613  0.82046588  0.88463799    -1.11500
O793        O  0.65970062  0.89774795  0.89924973    -0.70700
C794        C  0.68703481  0.90714884  0.87423514     1.00100
C795        C  0.73756252  0.75483696  0.87498221     0.96400
Al796      Al  0.64309697  0.77709507  0.86911835     1.55600
O797        O  0.73865742  0.85323268  0.91854964    -0.75300
C798        C  0.56514408  0.82773564  0.86916699     1.00600
C799        C  0.68060720  0.80458343  0.80209926     0.95500
O800        O  0.71406964  0.81727929  0.81982982    -0.80600
C801        C  0.61181464  0.74276982  0.01093298    -0.11500
C802        C  0.61180866  0.75711019  0.98035082    -0.13100
C803        C  0.47772140  0.83216898  0.86139986    -0.11500
C804        C  0.51817301  0.83223100  0.86145830    -0.13100
C805        C  0.47775036  0.66765609  0.12978535    -0.11500
C806        C  0.51820211  0.66761169  0.12976588    -0.13100
C807        C  0.38466447  0.75704516  0.98028391    -0.11500
C808        C  0.38466577  0.74276929  0.01087524    -0.13100
C809        C  0.29173052  0.94528474  0.87294561    -0.11500
C810        C  0.26945438  0.97396431  0.87422856    -0.13100
C811        C  0.20404123  0.69536066  0.87281213    -0.11500
C812        C  0.22641563  0.72394951  0.87434576    -0.13100
C813        C  0.24061322  0.61830469  0.98147831    -0.11500
C814        C  0.25592309  0.63174215  0.00915360    -0.13100
C815        C  0.24062501  0.88148128  0.00972629    -0.11500
C816        C  0.25592313  0.86805562  0.98204179    -0.13100
C817        C  0.11180789  0.50702392  0.98028685    -0.11500
C818        C  0.11181536  0.99267959  0.01086554    -0.13100
C819        C  0.20409119  0.80444406  0.11844630    -0.11500
C820        C  0.22645517  0.77585125  0.11689541    -0.13100
C821        C  0.29176987  0.55452101  0.11821463    -0.11500
C822        C  0.26948964  0.52584440  0.11692300    -0.13100
C823        C  0.01816718  0.58221955  0.86145195    -0.11500
C824        C  0.97771546  0.58217206  0.86141052    -0.13100
C825        C  0.75593674  0.61808022  0.98207828    -0.11500
C826        C  0.74064383  0.63151899  0.00975929    -0.13100
C827        C  0.79171472  0.69528868  0.87297521    -0.11500
C828        C  0.76944116  0.72396708  0.87426863    -0.13100
C829        C  0.72643495  0.97396578  0.87435931    -0.11500
C830        C  0.70406093  0.94536767  0.87280842    -0.13100
C831        C  0.97775390  0.91766610  0.12982489    -0.11500
C832        C  0.01820632  0.91760570  0.12978421    -0.13100
C833        C  0.88469163  0.99281164  0.01092650    -0.11500
C834        C  0.88467649  0.50708130  0.98033205    -0.13100
C835        C  0.74063333  0.86833904  0.98149729    -0.11500
C836        C  0.75594909  0.88177835  0.00917116    -0.13100
C837        C  0.72646908  0.52589805  0.11690973    -0.11500
C838        C  0.70410107  0.55448968  0.11845507    -0.13100
C839        C  0.76948089  0.77588899  0.11696434    -0.11500
C840        C  0.79176248  0.80456658  0.11824782    -0.13100
C841        C  0.68142881  0.80448016  0.72871452    -0.11500
C842        C  0.68151788  0.80456236  0.76221993    -0.13100
C843        C  0.68150753  0.69526107  0.26254254    -0.11500
C844        C  0.68157814  0.69523298  0.22903839    -0.13100
C845        C  0.61067705  0.75699930  0.51091343    -0.11500
C846        C  0.61069655  0.74272910  0.48031934    -0.13100
C847        C  0.31379112  0.80465710  0.72899695    -0.11500
C848        C  0.31387778  0.80456530  0.76250107    -0.13100
C849        C  0.47717799  0.83226018  0.62978388    -0.11500
C850        C  0.51762986  0.83217140  0.62982268    -0.13100
C851        C  0.31395410  0.69531483  0.22867910    -0.11500
C852        C  0.31387742  0.69529080  0.26218328    -0.13100
C853        C  0.51766382  0.66765755  0.36141007    -0.11500
C854        C  0.47721188  0.66763983  0.36145061    -0.13100
C855        C  0.38355574  0.75721936  0.51087670    -0.11500
C856        C  0.38357399  0.74287438  0.48029576    -0.13100
C857        C  0.18145577  0.55462241  0.72868161    -0.11500
C858        C  0.18152839  0.55464612  0.76218627    -0.13100
C859        C  0.29133549  0.94551094  0.61842867    -0.11500
C860        C  0.26898030  0.97409775  0.61687974    -0.13100
C861        C  0.20357794  0.69542818  0.61822638    -0.11500
C862        C  0.22584931  0.72411169  0.61693236    -0.13100
C863        C  0.25474270  0.63165189  0.48147370    -0.11500
C864        C  0.23943990  0.61821906  0.50915369    -0.13100
C865        C  0.18156726  0.94529166  0.22899465    -0.11500
C866        C  0.18147913  0.94537516  0.26249873    -0.13100
C867        C  0.23949288  0.88189483  0.48203372    -0.11500
C868        C  0.25479046  0.86847110  0.50971846    -0.13100
C869        C  0.11073074  0.50715691  0.51088499    -0.11500
C870        C  0.11071958  0.99287722  0.48029553    -0.13100
C871        C  0.20368094  0.80465172  0.37295101    -0.11500
C872        C  0.22596646  0.77597836  0.37423293    -0.13100
C873        C  0.29130170  0.55457680  0.37279569    -0.11500
C874        C  0.26892559  0.52598989  0.37432824    -0.13100
C875        C  0.81383107  0.55453616  0.72903772    -0.11500
C876        C  0.81389538  0.55450182  0.76254230    -0.13100
C877        C  0.97718660  0.58223717  0.62975870    -0.11500
C878        C  0.01763845  0.58222090  0.62979038    -0.13100
C879        C  0.75471716  0.61822477  0.50975912    -0.11500
C880        C  0.73941770  0.63167229  0.48208460    -0.13100
C881        C  0.79124344  0.69526796  0.61843435    -0.11500
C882        C  0.76886562  0.72385316  0.61689249    -0.13100
C883        C  0.70366959  0.94519401  0.61826721    -0.11500
C884        C  0.72595754  0.97386555  0.61698136    -0.13100
C885        C  0.81392831  0.94528196  0.22871777    -0.11500
C886        C  0.81383496  0.94520578  0.26222307    -0.13100
C887        C  0.97721101  0.91761239  0.36145033    -0.11500
C888        C  0.01766318  0.91770250  0.36140647    -0.13100
C889        C  0.88357748  0.99266513  0.48034131    -0.11500
C890        C  0.88358743  0.50700462  0.51092678    -0.13100
C891        C  0.75478175  0.88141366  0.48150318    -0.11500
C892        C  0.73946595  0.86797840  0.50917855    -0.13100
C893        C  0.72589815  0.52579584  0.37429811    -0.11500
C894        C  0.70362454  0.55447578  0.37300394    -0.13100
C895        C  0.76898571  0.77579651  0.37434661    -0.11500
C896        C  0.79134573  0.80439162  0.37279341    -0.13100
loop_ 
_geom_bond_atom_site_label_1 
_geom_bond_atom_site_label_2 
_geom_bond_distance 
_geom_bond_site_symmetry_2 
_ccdc_geom_bond_type 
O1           C16   1.256       .  A
O1           Al9   1.895       .  S
C2           O12   1.264       .  A
C2            O3   1.265       .  A
C2          C441   1.446       .  S
O3           Al5   1.935       .  S
O4            C6   1.254       .  A
O4           Al5   1.858       .  S
Al5          O13   1.903       .  S
Al5          O15   1.929       .  S
Al5          O14   1.790       .  S
C6           O19   1.267       .  A
C6          C443   1.417       .  S
O7           C17   1.257       .  A
O7           Al9   1.908       .  S
O8           C21   1.263       .  A
O8          Al18   1.894       .  S
Al9          O22   1.929       .  S
Al9          O19   1.927       .  S
Al9          O14   1.783       .  S
O10          C17   1.259       .  A
O10         Al18   1.922       .  S
O11          C20   1.266       .  A
O11         Al18   1.933       .  S
O12         Al18   1.913       .  S
O13          C20   1.262       .  A
O14         Al18   1.782       .  S
O15          C16   1.260       .  A
C16         C448   1.445       .  S
C17         C893   1.449       .  S
C20         C439   1.439       .  S
C21          O22   1.268       .  A
C21         C438   1.436       .  S
O23          C38   1.256       .  A
O23         Al31   1.895       .  S
C24          O34   1.264       .  A
C24          O25   1.265       .  A
C24         C442   1.446       .  S
O25         Al27   1.935       .  S
O26          C28   1.254       .  A
O26         Al27   1.858       .  S
Al27         O35   1.902       .  S
Al27         O37   1.929       .  S
Al27         O36   1.790       .  S
C28          O41   1.267       .  A
C28         C431   1.417       .  S
O29          C39   1.257       .  A
O29         Al31   1.908       .  S
O30          C43   1.263       .  A
O30         Al40   1.894       .  S
Al31         O44   1.928       .  S
Al31         O41   1.927       .  S
Al31         O36   1.783       .  S
O32          C39   1.259   1_565  A
O32         Al40   1.922   1_565  S
O33          C42   1.266       .  A
O33         Al40   1.934       .  S
O34         Al40   1.913       .  S
O35          C42   1.262       .  A
O36         Al40   1.782       .  S
O37          C38   1.260       .  A
C38         C433   1.445       .  S
C39         C884   1.449   1_545  S
C42         C429   1.439       .  S
C43          O44   1.268       .  A
C43         C427   1.436       .  S
O45          C60   1.268       .  A
O45         Al53   1.929       .  S
C46          O56   1.265       .  A
C46          O47   1.264       .  A
C46         C422   1.445       .  S
O47         Al49   1.912       .  S
O48          C50   1.259       .  A
O48         Al49   1.922       .  S
Al49         O57   1.934       .  S
Al49         O59   1.893       .  S
Al49         O58   1.782       .  S
C50          O63   1.256       .  A
C50         C874   1.447       .  S
O51          C61   1.267       .  A
O51         Al53   1.928       .  S
O52          C65   1.260       .  A
O52         Al62   1.931       .  S
Al53         O66   1.895       .  S
Al53         O63   1.907       .  S
Al53         O58   1.782       .  S
O54          C61   1.254       .  A
O54         Al62   1.858       .  S
O55          C64   1.262       .  A
O55         Al62   1.902       .  S
O56         Al62   1.935       .  S
O57          C64   1.266       .  A
O58         Al62   1.789       .  S
O59          C60   1.264       .  A
C60         C418   1.436       .  S
C61         C419   1.417       .  S
C64         C440   1.439       .  S
C65          O66   1.256       .  A
C65         C423   1.446       .  S
O67          C82   1.268       .  A
O67         Al75   1.929       .  S
C68          O78   1.265       .  A
C68          O69   1.264       .  A
C68         C421   1.445       .  S
O69         Al71   1.912       .  S
O70          C72   1.259   1_565  A
O70         Al71   1.922   1_565  S
Al71         O79   1.934       .  S
Al71         O81   1.893       .  S
Al71         O80   1.782       .  S
C72          O85   1.256       .  A
C72         C860   1.448   1_545  S
O73          C83   1.267       .  A
O73         Al75   1.928       .  S
O74          C87   1.260       .  A
O74         Al84   1.931       .  S
Al75         O88   1.895       .  S
Al75         O85   1.907       .  S
Al75         O80   1.782       .  S
O76          C83   1.254       .  A
O76         Al84   1.858       .  S
O77          C86   1.262       .  A
O77         Al84   1.902       .  S
O78         Al84   1.935       .  S
O79          C86   1.266       .  A
O80         Al84   1.789       .  S
O81          C82   1.264       .  A
C82         C409   1.436       .  S
C83         C416   1.417       .  S
C86         C430   1.439       .  S
C87          O88   1.256       .  A
C87         C413   1.446       .  S
O89         C104   1.256       .  A
O89         Al97   1.895       .  S
C90         O100   1.264       .  A
C90          O91   1.265       .  A
C90         C408   1.446       .  S
O91         Al93   1.935       .  S
O92          C94   1.254       .  A
O92         Al93   1.858       .  S
Al93        O101   1.902       .  S
Al93        O103   1.930       .  S
Al93        O102   1.790       .  S
C94         O107   1.267       .  A
C94         C415   1.416       .  S
O95         C105   1.257       .  A
O95         Al97   1.908       .  S
O96         C109   1.263       .  A
O96        Al106   1.894       .  S
Al97        O110   1.928       .  S
Al97        O107   1.927       .  S
Al97        O102   1.783       .  S
O98         C105   1.259       .  A
O98        Al106   1.922       .  S
O99         C108   1.266       .  A
O99        Al106   1.934       .  S
O100       Al106   1.913       .  S
O101        C108   1.262       .  A
O102       Al106   1.782       .  S
O103        C104   1.260       .  A
C104        C425   1.445       .  S
C105        C424   1.449       .  S
C108        C406   1.439       .  S
C109        O110   1.268       .  A
C109        C404   1.436       .  S
O111        C126   1.256       .  A
O111       Al119   1.895       .  S
C112        O122   1.264       .  A
C112        O113   1.265       .  A
C112        C407   1.446       .  S
O113       Al115   1.935       .  S
O114        C116   1.254       .  A
O114       Al115   1.858       .  S
Al115       O123   1.903       .  S
Al115       O125   1.929       .  S
Al115       O124   1.790       .  S
C116        O129   1.267       .  A
C116        C420   1.417       .  S
O117        C127   1.257       .  A
O117       Al119   1.908       .  S
O118        C131   1.263       .  A
O118       Al128   1.894       .  S
Al119       O132   1.929       .  S
Al119       O129   1.927       .  S
Al119       O124   1.783       .  S
O120        C127   1.259       .  A
O120       Al128   1.922       .  S
O121        C130   1.266       .  A
O121       Al128   1.933       .  S
O122       Al128   1.913       .  S
O123        C130   1.262       .  A
O124       Al128   1.782       .  S
O125        C126   1.260       .  A
C126        C411   1.445       .  S
C127        C414   1.449       .  S
C130        C401   1.439       .  S
C131        O132   1.268       .  A
C131        C399   1.436       .  S
O133        C148   1.268       .  A
O133       Al141   1.929       .  S
C134        O144   1.265       .  A
C134        O135   1.264       .  A
C134        C398   1.445       .  S
O135       Al137   1.912       .  S
O136        C138   1.259       .  A
O136       Al137   1.922       .  S
Al137       O145   1.934       .  S
Al137       O147   1.893       .  S
Al137       O146   1.782       .  S
C138        O151   1.256       .  A
C138        C447   1.447       .  S
O139        C149   1.267       .  A
O139       Al141   1.928       .  S
O140        C153   1.260       .  A
O140       Al150   1.931       .  S
Al141       O154   1.895       .  S
Al141       O151   1.907       .  S
Al141       O146   1.782       .  S
O142        C149   1.254       .  A
O142       Al150   1.858       .  S
O143        C152   1.262       .  A
O143       Al150   1.902       .  S
O144       Al150   1.935       .  S
O145        C152   1.266       .  A
O146       Al150   1.789       .  S
O147        C148   1.264       .  A
C148        C395   1.436       .  S
C149        C432   1.417       .  S
C152        C405   1.439       .  S
C153        O154   1.256       .  A
C153        C446   1.446       .  S
O155        C170   1.268       .  A
O155       Al163   1.929       .  S
C156        O166   1.265       .  A
C156        O157   1.264       .  A
C156        C397   1.445       .  S
O157       Al159   1.912       .  S
O158        C160   1.259       .  A
O158       Al159   1.922       .  S
Al159       O167   1.934       .  S
Al159       O169   1.893       .  S
Al159       O168   1.782       .  S
C160        O173   1.256       .  A
C160        C434   1.447       .  S
O161        C171   1.267       .  A
O161       Al163   1.928       .  S
O162        C175   1.260       .  A
O162       Al172   1.931       .  S
Al163       O176   1.895       .  S
Al163       O173   1.907       .  S
Al163       O168   1.782       .  S
O164        C171   1.254       .  A
O164       Al172   1.858       .  S
O165        C174   1.262       .  A
O165       Al172   1.902       .  S
O166       Al172   1.935       .  S
O167        C174   1.266       .  A
O168       Al172   1.789       .  S
O169        C170   1.264       .  A
C170        C393   1.436       .  S
C171        C444   1.417       .  S
C174        C402   1.439       .  S
C175        O176   1.256       .  A
C175        C435   1.446       .  S
O177        C192   1.268       .  A
O177       Al185   1.929       .  S
C178        O188   1.265       .  A
C178        O179   1.264       .  A
C178        C385   1.445       .  S
O179       Al181   1.912       .  S
O180        C182   1.259       .  A
O180       Al181   1.922       .  S
Al181       O189   1.934       .  S
Al181       O191   1.893       .  S
Al181       O190   1.782       .  S
C182        O195   1.256       .  A
C182        C837   1.447       .  S
O183        C193   1.267       .  A
O183       Al185   1.928       .  S
O184        C197   1.260       .  A
O184       Al194   1.931       .  S
Al185       O198   1.895       .  S
Al185       O195   1.907       .  S
Al185       O190   1.782       .  S
O186        C193   1.254       .  A
O186       Al194   1.858       .  S
O187        C196   1.262       .  A
O187       Al194   1.902       .  S
O188       Al194   1.935       .  S
O189        C196   1.266       .  A
O190       Al194   1.789       .  S
O191        C192   1.264       .  A
C192        C437   1.436       .  S
C193        C388   1.417       .  S
C196        C383   1.439       .  S
C197        O198   1.256       .  A
C197        C392   1.446       .  S
O199        C214   1.268       .  A
O199       Al207   1.929       .  S
C200        O210   1.265       .  A
C200        O201   1.264       .  A
C200        C386   1.445       .  S
O201       Al203   1.912       .  S
O202        C204   1.259   1_565  A
O202       Al203   1.922   1_565  S
Al203       O211   1.934       .  S
Al203       O213   1.893       .  S
Al203       O212   1.782       .  S
C204        O217   1.257       .  A
C204        C829   1.447   1_545  S
O205        C215   1.267       .  A
O205       Al207   1.928       .  S
O206        C219   1.260       .  A
O206       Al216   1.931       .  S
Al207       O220   1.895       .  S
Al207       O217   1.907       .  S
Al207       O212   1.782       .  S
O208        C215   1.254       .  A
O208       Al216   1.858       .  S
O209        C218   1.262       .  A
O209       Al216   1.902       .  S
O210       Al216   1.935       .  S
O211        C218   1.266       .  A
O212       Al216   1.789       .  S
O213        C214   1.264       .  A
C214        C428   1.436       .  S
C215        C377   1.417       .  S
C218        C376   1.439       .  S
C219        O220   1.256       .  A
C219        C379   1.446       .  S
O221        C236   1.256       .  A
O221       Al229   1.895       .  S
C222        O232   1.264       .  A
C222        O223   1.265       .  A
C222        C370   1.446       .  S
O223       Al225   1.935       .  S
O224        C226   1.254       .  A
O224       Al225   1.858       .  S
Al225       O233   1.903       .  S
Al225       O235   1.929       .  S
Al225       O234   1.790       .  S
C226        O239   1.267       .  A
C226        C367   1.416       .  S
O227        C237   1.257       .  A
O227       Al229   1.908       .  S
O228        C241   1.263       .  A
O228       Al238   1.894       .  S
Al229       O242   1.929       .  S
Al229       O239   1.927       .  S
Al229       O234   1.783       .  S
O230        C237   1.259       .  A
O230       Al238   1.922       .  S
O231        C240   1.266       .  A
O231       Al238   1.933       .  S
O232       Al238   1.913       .  S
O233        C240   1.262       .  A
O234       Al238   1.782       .  S
O235        C236   1.260       .  A
C236        C371   1.445       .  S
C237        C822   1.449       .  S
C240        C384   1.439       .  S
C241        O242   1.268       .  A
C241        C417   1.436       .  S
O243        C258   1.256       .  A
O243       Al251   1.895       .  S
C244        O254   1.264       .  A
C244        O245   1.265       .  A
C244        C369   1.446       .  S
O245       Al247   1.935       .  S
O246        C248   1.254       .  A
O246       Al247   1.858       .  S
Al247       O255   1.903       .  S
Al247       O257   1.930       .  S
Al247       O256   1.790       .  S
C248        O261   1.267       .  A
C248        C365   1.417       .  S
O249        C259   1.257       .  A
O249       Al251   1.908       .  S
O250        C263   1.263       .  A
O250       Al260   1.894       .  S
Al251       O264   1.928       .  S
Al251       O261   1.927       .  S
Al251       O256   1.783       .  S
O252        C259   1.259   1_565  A
O252       Al260   1.922   1_565  S
O253        C262   1.266       .  A
O253       Al260   1.933       .  S
O254       Al260   1.913       .  S
O255        C262   1.262       .  A
O256       Al260   1.782       .  S
O257        C258   1.260       .  A
C258        C363   1.445       .  S
C259        C810   1.449   1_545  S
C262        C375   1.439       .  S
C263        O264   1.268       .  A
C263        C410   1.436       .  S
O265        C280   1.268       .  A
O265       Al273   1.929       .  S
C266        O276   1.265       .  A
C266        O267   1.264       .  A
C266        C360   1.445       .  S
O267       Al269   1.912       .  S
O268        C270   1.259       .  A
O268       Al269   1.922       .  S
Al269       O277   1.934       .  S
Al269       O279   1.893       .  S
Al269       O278   1.782       .  S
C270        O283   1.256       .  A
C270        C372   1.447       .  S
O271        C281   1.267       .  A
O271       Al273   1.928       .  S
O272        C285   1.260       .  A
O272       Al282   1.931       .  S
Al273       O286   1.895       .  S
Al273       O283   1.907       .  S
Al273       O278   1.782       .  S
O274        C281   1.254       .  A
O274       Al282   1.858       .  S
O275        C284   1.262       .  A
O275       Al282   1.902       .  S
O276       Al282   1.935       .  S
O277        C284   1.266       .  A
O278       Al282   1.789       .  S
O279        C280   1.264       .  A
C280        C403   1.436       .  S
C281        C366   1.417       .  S
C284        C357   1.439       .  S
C285        O286   1.256       .  A
C285        C373   1.446       .  S
O287        C302   1.268       .  A
O287       Al295   1.929       .  S
C288        O298   1.265       .  A
C288        O289   1.264       .  A
C288        C359   1.445       .  S
O289       Al291   1.912       .  S
O290        C292   1.259       .  A
O290       Al291   1.922       .  S
Al291       O299   1.934       .  S
Al291       O301   1.893       .  S
Al291       O300   1.782       .  S
C292        O305   1.256       .  A
C292        C364   1.448       .  S
O293        C303   1.267       .  A
O293       Al295   1.927       .  S
O294        C307   1.260       .  A
O294       Al304   1.931       .  S
Al295       O308   1.895       .  S
Al295       O305   1.907       .  S
Al295       O300   1.782       .  S
O296        C303   1.254       .  A
O296       Al304   1.858       .  S
O297        C306   1.262       .  A
O297       Al304   1.902       .  S
O298       Al304   1.935       .  S
O299        C306   1.266       .  A
O300       Al304   1.789       .  S
O301        C302   1.264       .  A
C302        C400   1.436       .  S
C303        C368   1.417       .  S
C306        C355   1.439       .  S
C307        O308   1.256       .  A
C307        C361   1.446       .  S
O309        C324   1.256       .  A
O309       Al317   1.895       .  S
C310        O320   1.264       .  A
C310        O311   1.265       .  A
C310        C353   1.446       .  S
O311       Al313   1.935       .  S
O312        C314   1.254       .  A
O312       Al313   1.858       .  S
Al313       O321   1.903       .  S
Al313       O323   1.930       .  S
Al313       O322   1.790       .  S
C314        O327   1.267       .  A
C314        C378   1.417       .  S
O315        C325   1.257       .  A
O315       Al317   1.908       .  S
O316        C329   1.263       .  A
O316       Al326   1.894       .  S
Al317       O330   1.928       .  S
Al317       O327   1.927       .  S
Al317       O322   1.783       .  S
O318        C325   1.259       .  A
O318       Al326   1.922       .  S
O319        C328   1.266       .  A
O319       Al326   1.934       .  S
O320       Al326   1.913       .  S
O321        C328   1.262       .  A
O322       Al326   1.782       .  S
O323        C324   1.260       .  A
C324        C390   1.445       .  S
C325        C391   1.449       .  S
C328        C358   1.439       .  S
C329        O330   1.268       .  A
C329        C396   1.436       .  S
O331        C346   1.256       .  A
O331       Al339   1.895       .  S
C332        O342   1.264       .  A
C332        O333   1.265       .  A
C332        C354   1.446       .  S
O333       Al335   1.935       .  S
O334        C336   1.254       .  A
O334       Al335   1.858       .  S
Al335       O343   1.903       .  S
Al335       O345   1.929       .  S
Al335       O344   1.790       .  S
C336        O349   1.267       .  A
C336        C387   1.417       .  S
O337        C347   1.257       .  A
O337       Al339   1.908       .  S
O338        C351   1.263       .  A
O338       Al348   1.894       .  S
Al339       O352   1.929       .  S
Al339       O349   1.927       .  S
Al339       O344   1.783       .  S
O340        C347   1.259       .  A
O340       Al348   1.922       .  S
O341        C350   1.266       .  A
O341       Al348   1.933       .  S
O342       Al348   1.913       .  S
O343        C350   1.262       .  A
O344       Al348   1.782       .  S
O345        C346   1.260       .  A
C346        C382   1.445       .  S
C347        C380   1.449       .  S
C350        C356   1.439       .  S
C351        O352   1.268       .  A
C351        C394   1.436       .  S
C353        C354   1.212   1_554  T
C355        C356   1.208       .  T
C357        C358   1.208       .  T
C359        C360   1.211   1_556  T
C361        C362   1.214       .  T
C362        C707   1.449       .  S
C363        C364   1.213       .  T
C365        C366   1.195   1_556  T
C367        C368   1.195   1_554  T
C369        C818   1.212   1_546  T
C370        C817   1.212   1_554  T
C371        C372   1.213       .  T
C373        C374   1.214       .  T
C374        C685   1.449   1_545  S
C375        C376   1.208   1_455  T
C377        C378   1.195   1_556  T
C379        C380   1.214       .  T
C381        C652   1.447       .  S
C381        C382   1.213       .  T
C383        C384   1.208   1_655  T
C385        C834   1.211   1_554  T
C386        C833   1.211   1_546  T
C387        C388   1.195   1_556  T
C389        C630   1.448   1_545  S
C389        C390   1.213       .  T
C391        C392   1.214       .  T
C393        C394   1.206       .  T
C395        C396   1.206       .  T
C397        C398   1.211       .  T
C399        C400   1.206       .  T
C401        C402   1.208       .  T
C403        C404   1.206       .  T
C405        C406   1.208       .  T
C407        C408   1.212       .  T
C409        C410   1.206       .  T
C411        C412   1.213       .  T
C412        C520   1.447       .  S
C413        C414   1.214       .  T
C415        C416   1.195       .  T
C417        C418   1.206       .  T
C419        C420   1.195       .  T
C421        C870   1.211   1_545  T
C422        C869   1.211       .  T
C423        C424   1.214       .  T
C425        C426   1.213       .  T
C426        C498   1.447   1_545  S
C427        C428   1.206       .  T
C429        C430   1.208   1_655  T
C431        C432   1.195       .  T
C433        C434   1.213       .  T
C435        C436   1.214       .  T
C436        C487   1.449       .  S
C437        C438   1.206       .  T
C439        C440   1.208   1_655  T
C441        C890   1.212       .  T
C442        C889   1.212   1_545  T
C443        C444   1.195       .  T
C445        C465   1.449   1_545  S
C445        C446   1.214       .  T
C447        C448   1.213       .  T
O449        C464   1.256       .  A
O449       Al457   1.895       .  S
C450        O460   1.264       .  A
C450        O451   1.265       .  A
C450        C889   1.446       .  S
O451       Al453   1.935       .  S
O452        C454   1.254       .  A
O452       Al453   1.858       .  S
Al453       O461   1.903       .  S
Al453       O463   1.929       .  S
Al453       O462   1.790       .  S
C454        O467   1.267       .  A
C454        C891   1.417       .  S
O455        C465   1.257       .  A
O455       Al457   1.908       .  S
O456        C469   1.263       .  A
O456       Al466   1.894       .  S
Al457       O470   1.929       .  S
Al457       O467   1.927       .  S
Al457       O462   1.783       .  S
O458        C465   1.259   1_545  A
O458       Al466   1.922   1_545  S
O459        C468   1.266       .  A
O459       Al466   1.933       .  S
O460       Al466   1.913       .  S
O461        C468   1.262       .  A
O462       Al466   1.782       .  S
O463        C464   1.260       .  A
C464        C896   1.445       .  S
C468        C887   1.439       .  S
C469        O470   1.268       .  A
C469        C886   1.436       .  S
O471        C486   1.256       .  A
O471       Al479   1.895       .  S
C472        O482   1.264       .  A
C472        O473   1.265       .  A
C472        C890   1.446       .  S
O473       Al475   1.935       .  S
O474        C476   1.254       .  A
O474       Al475   1.858       .  S
Al475       O483   1.902       .  S
Al475       O485   1.929       .  S
Al475       O484   1.790       .  S
C476        O489   1.267       .  A
C476        C879   1.417       .  S
O477        C487   1.257       .  A
O477       Al479   1.908       .  S
O478        C491   1.263       .  A
O478       Al488   1.894       .  S
Al479       O492   1.928       .  S
Al479       O489   1.927       .  S
Al479       O484   1.783       .  S
O480        C487   1.259       .  A
O480       Al488   1.922       .  S
O481        C490   1.266       .  A
O481       Al488   1.934       .  S
O482       Al488   1.913       .  S
O483        C490   1.262       .  A
O484       Al488   1.782       .  S
O485        C486   1.260       .  A
C486        C881   1.445       .  S
C490        C877   1.439       .  S
C491        O492   1.268       .  A
C491        C875   1.436       .  S
O493        C508   1.268       .  A
O493       Al501   1.929       .  S
C494        O504   1.265       .  A
C494        O495   1.264       .  A
C494        C870   1.445       .  S
O495       Al497   1.912       .  S
O496        C498   1.259   1_545  A
O496       Al497   1.922   1_545  S
Al497       O505   1.934       .  S
Al497       O507   1.893       .  S
Al497       O506   1.782       .  S
C498        O511   1.256       .  A
O499        C509   1.267       .  A
O499       Al501   1.928       .  S
O500        C513   1.260       .  A
O500       Al510   1.931       .  S
Al501       O514   1.895       .  S
Al501       O511   1.907       .  S
Al501       O506   1.782       .  S
O502        C509   1.254       .  A
O502       Al510   1.858       .  S
O503        C512   1.262       .  A
O503       Al510   1.902       .  S
O504       Al510   1.935       .  S
O505        C512   1.266       .  A
O506       Al510   1.789       .  S
O507        C508   1.264       .  A
C508        C866   1.436       .  S
C509        C867   1.417       .  S
C512        C888   1.439       .  S
C513        O514   1.256       .  A
C513        C871   1.446       .  S
O515        C530   1.268       .  A
O515       Al523   1.929       .  S
C516        O526   1.265       .  A
C516        O517   1.264       .  A
C516        C869   1.445       .  S
O517       Al519   1.912       .  S
O518        C520   1.259       .  A
O518       Al519   1.922       .  S
Al519       O527   1.934       .  S
Al519       O529   1.893       .  S
Al519       O528   1.782       .  S
C520        O533   1.256       .  A
O521        C531   1.267       .  A
O521       Al523   1.928       .  S
O522        C535   1.260       .  A
O522       Al532   1.931       .  S
Al523       O536   1.895       .  S
Al523       O533   1.907       .  S
Al523       O528   1.782       .  S
O524        C531   1.254       .  A
O524       Al532   1.858       .  S
O525        C534   1.262       .  A
O525       Al532   1.902       .  S
O526       Al532   1.935       .  S
O527        C534   1.266       .  A
O528       Al532   1.789       .  S
O529        C530   1.264       .  A
C530        C857   1.436       .  S
C531        C864   1.417       .  S
C534        C878   1.439       .  S
C535        O536   1.256       .  A
C535        C861   1.446       .  S
O537        C552   1.256       .  A
O537       Al545   1.895       .  S
C538        O548   1.264       .  A
C538        O539   1.265       .  A
C538        C856   1.446       .  S
O539       Al541   1.935       .  S
O540        C542   1.254       .  A
O540       Al541   1.858       .  S
Al541       O549   1.902       .  S
Al541       O551   1.930       .  S
Al541       O550   1.790       .  S
C542        O555   1.267       .  A
C542        C863   1.417       .  S
O543        C553   1.257       .  A
O543       Al545   1.908       .  S
O544        C557   1.263       .  A
O544       Al554   1.894       .  S
Al545       O558   1.928       .  S
Al545       O555   1.927       .  S
Al545       O550   1.783       .  S
O546        C553   1.259       .  A
O546       Al554   1.922       .  S
O547        C556   1.266       .  A
O547       Al554   1.934       .  S
O548       Al554   1.913       .  S
O549        C556   1.262       .  A
O550       Al554   1.782       .  S
O551        C552   1.260       .  A
C552        C873   1.445       .  S
C553        C872   1.449       .  S
C556        C854   1.439       .  S
C557        O558   1.268       .  A
C557        C852   1.436       .  S
O559        C574   1.256       .  A
O559       Al567   1.895       .  S
C560        O570   1.264       .  A
C560        O561   1.265       .  A
C560        C855   1.446       .  S
O561       Al563   1.935       .  S
O562        C564   1.254       .  A
O562       Al563   1.858       .  S
Al563       O571   1.903       .  S
Al563       O573   1.929       .  S
Al563       O572   1.790       .  S
C564        O577   1.267       .  A
C564        C868   1.417       .  S
O565        C575   1.257       .  A
O565       Al567   1.908       .  S
O566        C579   1.263       .  A
O566       Al576   1.894       .  S
Al567       O580   1.929       .  S
Al567       O577   1.927       .  S
Al567       O572   1.783       .  S
O568        C575   1.259       .  A
O568       Al576   1.922       .  S
O569        C578   1.266       .  A
O569       Al576   1.933       .  S
O570       Al576   1.913       .  S
O571        C578   1.262       .  A
O572       Al576   1.782       .  S
O573        C574   1.260       .  A
C574        C859   1.446       .  S
C575        C862   1.449       .  S
C578        C849   1.439       .  S
C579        O580   1.268       .  A
C579        C847   1.436       .  S
O581        C596   1.268       .  A
O581       Al589   1.929       .  S
C582        O592   1.265       .  A
C582        O583   1.264       .  A
C582        C846   1.445       .  S
O583       Al585   1.912       .  S
O584        C586   1.259       .  A
O584       Al585   1.922       .  S
Al585       O593   1.934       .  S
Al585       O595   1.893       .  S
Al585       O594   1.782       .  S
C586        O599   1.256       .  A
C586        C895   1.447       .  S
O587        C597   1.267       .  A
O587       Al589   1.928       .  S
O588        C601   1.260       .  A
O588       Al598   1.931       .  S
Al589       O602   1.895       .  S
Al589       O599   1.907       .  S
Al589       O594   1.782       .  S
O590        C597   1.254       .  A
O590       Al598   1.858       .  S
O591        C600   1.262       .  A
O591       Al598   1.902       .  S
O592       Al598   1.935       .  S
O593        C600   1.266       .  A
O594       Al598   1.789       .  S
O595        C596   1.263       .  A
C596        C843   1.436       .  S
C597        C880   1.417       .  S
C600        C853   1.439       .  S
C601        O602   1.256       .  A
C601        C894   1.446       .  S
O603        C618   1.268       .  A
O603       Al611   1.929       .  S
C604        O614   1.265       .  A
C604        O605   1.264       .  A
C604        C845   1.445       .  S
O605       Al607   1.912       .  S
O606        C608   1.259       .  A
O606       Al607   1.922       .  S
Al607       O615   1.934       .  S
Al607       O617   1.893       .  S
Al607       O616   1.782       .  S
C608        O621   1.256       .  A
C608        C882   1.447       .  S
O609        C619   1.267       .  A
O609       Al611   1.928       .  S
O610        C623   1.260       .  A
O610       Al620   1.931       .  S
Al611       O624   1.895       .  S
Al611       O621   1.907       .  S
Al611       O616   1.782       .  S
O612        C619   1.254       .  A
O612       Al620   1.858       .  S
O613        C622   1.262       .  A
O613       Al620   1.902       .  S
O614       Al620   1.935       .  S
O615        C622   1.266       .  A
O616       Al620   1.789       .  S
O617        C618   1.264       .  A
C618        C841   1.436       .  S
C619        C892   1.417       .  S
C622        C850   1.439       .  S
C623        O624   1.256       .  A
C623        C883   1.446       .  S
O625        C640   1.268       .  A
O625       Al633   1.929       .  S
C626        O636   1.265       .  A
C626        O627   1.264       .  A
C626        C833   1.445       .  S
O627       Al629   1.912       .  S
O628        C630   1.259   1_545  A
O628       Al629   1.922   1_545  S
Al629       O637   1.934       .  S
Al629       O639   1.893       .  S
Al629       O638   1.782       .  S
C630        O643   1.256       .  A
O631        C641   1.267       .  A
O631       Al633   1.928       .  S
O632        C645   1.260       .  A
O632       Al642   1.931       .  S
Al633       O646   1.895       .  S
Al633       O643   1.907       .  S
Al633       O638   1.782       .  S
O634        C641   1.254       .  A
O634       Al642   1.858       .  S
O635        C644   1.262       .  A
O635       Al642   1.902       .  S
O636       Al642   1.935       .  S
O637        C644   1.266       .  A
O638       Al642   1.789       .  S
O639        C640   1.264       .  A
C640        C885   1.436       .  S
C641        C836   1.417       .  S
C644        C831   1.439       .  S
C645        O646   1.256       .  A
C645        C840   1.446       .  S
O647        C662   1.268       .  A
O647       Al655   1.929       .  S
C648        O658   1.265       .  A
C648        O649   1.264       .  A
C648        C834   1.445       .  S
O649       Al651   1.912       .  S
O650        C652   1.259       .  A
O650       Al651   1.922       .  S
Al651       O659   1.934       .  S
Al651       O661   1.893       .  S
Al651       O660   1.782       .  S
C652        O665   1.256       .  A
O653        C663   1.267       .  A
O653       Al655   1.928       .  S
O654        C667   1.260       .  A
O654       Al664   1.931       .  S
Al655       O668   1.895       .  S
Al655       O665   1.907       .  S
Al655       O660   1.782       .  S
O656        C663   1.254       .  A
O656       Al664   1.858       .  S
O657        C666   1.262       .  A
O657       Al664   1.902       .  S
O658       Al664   1.935       .  S
O659        C666   1.266       .  A
O660       Al664   1.789       .  S
O661        C662   1.264       .  A
C662        C876   1.436       .  S
C663        C825   1.417       .  S
C666        C824   1.439       .  S
C667        O668   1.256       .  A
C667        C827   1.446       .  S
O669        C684   1.256       .  A
O669       Al677   1.895       .  S
C670        O680   1.264       .  A
C670        O671   1.265       .  A
C670        C818   1.446       .  S
O671       Al673   1.935       .  S
O672        C674   1.254       .  A
O672       Al673   1.858       .  S
Al673       O681   1.903       .  S
Al673       O683   1.929       .  S
Al673       O682   1.790       .  S
C674        O687   1.267       .  A
C674        C815   1.416       .  S
O675        C685   1.257       .  A
O675       Al677   1.908       .  S
O676        C689   1.263       .  A
O676       Al686   1.894       .  S
Al677       O690   1.929       .  S
Al677       O687   1.927       .  S
Al677       O682   1.783       .  S
O678        C685   1.259   1_545  A
O678       Al686   1.922   1_545  S
O679        C688   1.266       .  A
O679       Al686   1.933       .  S
O680       Al686   1.913       .  S
O681        C688   1.262       .  A
O682       Al686   1.782       .  S
O683        C684   1.260       .  A
C684        C819   1.445       .  S
C688        C832   1.439       .  S
C689        O690   1.268       .  A
C689        C865   1.436       .  S
O691        C706   1.256       .  A
O691       Al699   1.895       .  S
C692        O702   1.264       .  A
C692        O693   1.265       .  A
C692        C817   1.446       .  S
O693       Al695   1.935       .  S
O694        C696   1.254       .  A
O694       Al695   1.858       .  S
Al695       O703   1.903       .  S
Al695       O705   1.930       .  S
Al695       O704   1.790       .  S
C696        O709   1.267       .  A
C696        C813   1.417       .  S
O697        C707   1.257       .  A
O697       Al699   1.908       .  S
O698        C711   1.263       .  A
O698       Al708   1.894       .  S
Al699       O712   1.928       .  S
Al699       O709   1.927       .  S
Al699       O704   1.783       .  S
O700        C707   1.259       .  A
O700       Al708   1.922       .  S
O701        C710   1.266       .  A
O701       Al708   1.933       .  S
O702       Al708   1.913       .  S
O703        C710   1.262       .  A
O704       Al708   1.782       .  S
O705        C706   1.260       .  A
C706        C811   1.445       .  S
C710        C823   1.439       .  S
C711        O712   1.268       .  A
C711        C858   1.436       .  S
O713        C728   1.268       .  A
O713       Al721   1.929       .  S
C714        O724   1.265       .  A
C714        O715   1.264       .  A
C714        C808   1.445       .  S
O715       Al717   1.912       .  S
O716        C718   1.259       .  A
O716       Al717   1.922       .  S
Al717       O725   1.934       .  S
Al717       O727   1.893       .  S
Al717       O726   1.782       .  S
C718        O731   1.256       .  A
C718        C820   1.447       .  S
O719        C729   1.267       .  A
O719       Al721   1.928       .  S
O720        C733   1.260       .  A
O720       Al730   1.931       .  S
Al721       O734   1.895       .  S
Al721       O731   1.907       .  S
Al721       O726   1.782       .  S
O722        C729   1.254       .  A
O722       Al730   1.858       .  S
O723        C732   1.262       .  A
O723       Al730   1.902       .  S
O724       Al730   1.935       .  S
O725        C732   1.266       .  A
O726       Al730   1.789       .  S
O727        C728   1.264       .  A
C728        C851   1.436       .  S
C729        C814   1.417       .  S
C732        C805   1.439       .  S
C733        O734   1.256       .  A
C733        C821   1.446       .  S
O735        C750   1.268       .  A
O735       Al743   1.929       .  S
C736        O746   1.265       .  A
C736        O737   1.264       .  A
C736        C807   1.445       .  S
O737       Al739   1.912       .  S
O738        C740   1.259       .  A
O738       Al739   1.922       .  S
Al739       O747   1.934       .  S
Al739       O749   1.893       .  S
Al739       O748   1.782       .  S
C740        O753   1.256       .  A
C740        C812   1.448       .  S
O741        C751   1.267       .  A
O741       Al743   1.928       .  S
O742        C755   1.260       .  A
O742       Al752   1.931       .  S
Al743       O756   1.895       .  S
Al743       O753   1.907       .  S
Al743       O748   1.782       .  S
O744        C751   1.254       .  A
O744       Al752   1.858       .  S
O745        C754   1.262       .  A
O745       Al752   1.902       .  S
O746       Al752   1.935       .  S
O747        C754   1.266       .  A
O748       Al752   1.789       .  S
O749        C750   1.264       .  A
C750        C848   1.436       .  S
C751        C816   1.417       .  S
C754        C803   1.439       .  S
C755        O756   1.256       .  A
C755        C809   1.446       .  S
O757        C772   1.256       .  A
O757       Al765   1.895       .  S
C758        O768   1.264       .  A
C758        O759   1.265       .  A
C758        C801   1.446       .  S
O759       Al761   1.935       .  S
O760        C762   1.254       .  A
O760       Al761   1.858       .  S
Al761       O769   1.903       .  S
Al761       O771   1.929       .  S
Al761       O770   1.790       .  S
C762        O775   1.267       .  A
C762        C826   1.417       .  S
O763        C773   1.257       .  A
O763       Al765   1.908       .  S
O764        C777   1.263       .  A
O764       Al774   1.894       .  S
Al765       O778   1.928       .  S
Al765       O775   1.927       .  S
Al765       O770   1.783       .  S
O766        C773   1.259       .  A
O766       Al774   1.922       .  S
O767        C776   1.266       .  A
O767       Al774   1.934       .  S
O768       Al774   1.913       .  S
O769        C776   1.262       .  A
O770       Al774   1.782       .  S
O771        C772   1.260       .  A
C772        C838   1.445       .  S
C773        C839   1.449       .  S
C776        C806   1.439       .  S
C777        O778   1.268       .  A
C777        C844   1.436       .  S
O779        C794   1.256       .  A
O779       Al787   1.895       .  S
C780        O790   1.264       .  A
C780        O781   1.265       .  A
C780        C802   1.446       .  S
O781       Al783   1.935       .  S
O782        C784   1.254       .  A
O782       Al783   1.858       .  S
Al783       O791   1.903       .  S
Al783       O793   1.929       .  S
Al783       O792   1.790       .  S
C784        O797   1.267       .  A
C784        C835   1.417       .  S
O785        C795   1.257       .  A
O785       Al787   1.908       .  S
O786        C799   1.263       .  A
O786       Al796   1.894       .  S
Al787       O800   1.929       .  S
Al787       O797   1.927       .  S
Al787       O792   1.783       .  S
O788        C795   1.259       .  A
O788       Al796   1.922       .  S
O789        C798   1.266       .  A
O789       Al796   1.933       .  S
O790       Al796   1.913       .  S
O791        C798   1.262       .  A
O792       Al796   1.782       .  S
O793        C794   1.260       .  A
C794        C830   1.445       .  S
C795        C828   1.449       .  S
C798        C804   1.439       .  S
C799        O800   1.268       .  A
C799        C842   1.436       .  S
C801        C802   1.212   1_554  T
C803        C804   1.208       .  T
C805        C806   1.208       .  T
C807        C808   1.211   1_556  T
C809        C810   1.214       .  T
C811        C812   1.213       .  T
C813        C814   1.195   1_556  T
C815        C816   1.195   1_554  T
C819        C820   1.213       .  T
C821        C822   1.214       .  T
C823        C824   1.208   1_455  T
C825        C826   1.195   1_556  T
C827        C828   1.214       .  T
C829        C830   1.213       .  T
C831        C832   1.208   1_655  T
C835        C836   1.195   1_556  T
C837        C838   1.213       .  T
C839        C840   1.214       .  T
C841        C842   1.206       .  T
C843        C844   1.206       .  T
C845        C846   1.211       .  T
C847        C848   1.206       .  T
C849        C850   1.208       .  T
C851        C852   1.206       .  T
C853        C854   1.208       .  T
C855        C856   1.212       .  T
C857        C858   1.206       .  T
C859        C860   1.213       .  T
C861        C862   1.214       .  T
C863        C864   1.195       .  T
C865        C866   1.206       .  T
C867        C868   1.195       .  T
C871        C872   1.214       .  T
C873        C874   1.213       .  T
C875        C876   1.206       .  T
C877        C878   1.208   1_655  T
C879        C880   1.195       .  T
C881        C882   1.213       .  T
C883        C884   1.214       .  T
C885        C886   1.206       .  T
C887        C888   1.208   1_655  T
C891        C892   1.195       .  T
C893        C894   1.214       .  T
C895        C896   1.213       .  T
