geometry optimzed in LAMMPS
_audit_creation_date              2020-12-01 
_audit_creation_method            'lammps2cif' 
_symmetry_space_group_name_H-M    'P1' 
_symmetry_Int_Tables_number       1 
_symmetry_cell_setting            triclinic 
loop_ 
_symmetry_equiv_pos_as_xyz 
  x,y,z 
_cell_length_a                    41.93600209 
_cell_length_b                    34.50426956022847 
_cell_length_c                    40.52458201835681 
_cell_angle_alpha                 89.93646631694125 
_cell_angle_beta                  90.27410408249759 
_cell_angle_gamma                 89.63619184199415 
loop_ 
_atom_site_label 
_atom_site_type_symbol 
_atom_site_fract_x 
_atom_site_fract_y 
_atom_site_fract_z 
_atom_site_charge 
O1          O  0.41823268  0.79993194  0.30958626    -0.82300
C2          C  0.31173827  0.88758907  0.33726950     0.97100
O3          O  0.33582889  0.87406697  0.35222902    -0.71400
O4          O  0.38242811  0.82400466  0.36459310    -0.75000
Al5        Al  0.37719397  0.86755783  0.33418337     1.49000
C6          C  0.37101970  0.79004091  0.36365778     0.92400
O7          O  0.33436950  0.77321636  0.27856789    -0.81200
O8          O  0.34712963  0.83164215  0.23465281    -0.74700
Al9        Al  0.37494156  0.79138063  0.29493543     1.90100
O10         O  0.30357673  0.82444435  0.28414982    -0.73800
O11         O  0.36266008  0.89996571  0.26047971    -0.73700
O12         O  0.31305737  0.89337694  0.30634267    -0.79300
O13         O  0.37566045  0.91734538  0.31082239    -0.77500
O14         O  0.36224443  0.83993115  0.30079526    -1.13700
O15         O  0.41933258  0.86260931  0.31912929    -0.72800
C16         C  0.43371391  0.83102673  0.31367639     0.97900
C17         C  0.30702111  0.78905811  0.27804910     0.94300
Al18       Al  0.33407981  0.86101735  0.27345709     1.55600
O19         O  0.36111795  0.77607585  0.33693563    -0.77500
C20         C  0.37358892  0.92489312  0.28011503     0.98400
C21         C  0.37056658  0.80922348  0.22898044     0.93300
O22         O  0.38981156  0.80111279  0.25191566    -0.82800
O23         O  0.61620722  0.80376179  0.25006621    -0.82300
C24         C  0.69217210  0.89132231  0.33621676     0.97100
O25         O  0.69175593  0.89604999  0.30511785    -0.71400
O26         O  0.70224068  0.82661453  0.28422555    -0.75000
Al27       Al  0.67161790  0.86313345  0.27205366     1.49000
C28         C  0.69914160  0.79133106  0.27776155     0.92400
O29         O  0.64471486  0.77933532  0.33543113    -0.81200
O30         O  0.58548801  0.86546404  0.31536661    -0.74700
Al31       Al  0.63098142  0.79411039  0.29317273     1.90100
O32         O  0.62225580  0.82740241  0.36219206    -0.73800
O33         O  0.62859649  0.92023716  0.30729350    -0.73700
O34         O  0.66800175  0.87784633  0.35047022    -0.79300
O35         O  0.64310788  0.90191783  0.25772641    -0.77500
O36         O  0.64313573  0.84267651  0.29883950    -1.13700
O37         O  0.65914085  0.83315198  0.23315121    -0.72800
C38         C  0.63542526  0.81144402  0.22728017     0.97900
C39         C  0.63385625  0.79326486  0.36173969     0.94300
Al40       Al  0.62727165  0.87078531  0.33139229     1.55600
O41         O  0.67187425  0.77567149  0.27743377    -0.77500
C42         C  0.63151735  0.92726442  0.27656826     0.98400
C43         C  0.57152837  0.83364448  0.31085177     0.93300
O44         O  0.58748583  0.80259264  0.30724810    -0.82800
O45         O  0.58542951  0.70160612  0.05661168    -0.82300
C46         C  0.69397237  0.61666814  0.08652008     0.97100
O47         O  0.66948569  0.62938723  0.10094204    -0.71400
O48         O  0.62252971  0.67867207  0.11276996    -0.75000
Al49       Al  0.62813364  0.63534107  0.08221022     1.49000
C50         C  0.63240708  0.71340140  0.11160554     0.92400
O51         O  0.66924327  0.73155456  0.02719820    -0.81200
O52         O  0.65923323  0.67351640  0.48369182    -0.74700
Al53       Al  0.62872169  0.71171860  0.04272360     1.90100
O54         O  0.70127846  0.68181954  0.03508698    -0.73800
O55         O  0.64489694  0.60480243  0.00842302    -0.73700
O56         O  0.69317843  0.61159927  0.05554573    -0.79300
O57         O  0.63024168  0.58609649  0.05789149    -0.77500
O58         O  0.64272817  0.66374483  0.04921818    -1.13700
O59         O  0.58571984  0.63923321  0.06719993    -0.72800
C60         C  0.57057519  0.67027451  0.06179874     0.97900
C61         C  0.69705593  0.71682159  0.02775942     0.94300
Al62       Al  0.67210182  0.64416920  0.02271702     1.55600
O63         O  0.64141147  0.72784123  0.08479522    -0.77500
C64         C  0.63305833  0.57955125  0.02705294     0.98400
C65         C  0.63494271  0.69425965  0.47710682     0.93300
O66         O  0.61479754  0.70097673  0.49934465    -0.82800
O67         O  0.38774242  0.69961988  0.50230633    -0.82300
C68         C  0.31073821  0.61175027  0.08697414     0.97100
O69         O  0.31158338  0.60750679  0.05589691    -0.71400
O70         O  0.30135335  0.67741993  0.03503996    -0.75000
Al71       Al  0.33200197  0.64055874  0.02351369     1.49000
C72         C  0.30480308  0.71274573  0.02871298     0.92400
O73         O  0.35932546  0.72385121  0.08752557    -0.81200
O74         O  0.41827638  0.63741516  0.06882491    -0.74700
Al75       Al  0.37294820  0.70906884  0.04539580     1.90100
O76         O  0.38070940  0.67521613  0.11476397    -0.73800
O77         O  0.37489284  0.58299921  0.05936768    -0.73700
O78         O  0.33480610  0.62476129  0.10201524    -0.79300
O79         O  0.36042278  0.60169720  0.00969544    -0.77500
O80         O  0.36045710  0.66058730  0.05089434    -1.13700
O81         O  0.34471624  0.67054432  0.48495847    -0.72800
C82         C  0.36849365  0.69210831  0.47933138     0.97900
C83         C  0.36977243  0.70966265  0.11404646     0.94300
Al84       Al  0.37596539  0.63210933  0.08376433     1.55600
O85         O  0.33222232  0.72802280  0.02921653    -0.77500
C86         C  0.37210266  0.57625765  0.02858119     0.98400
C87         C  0.43227435  0.66919068  0.06396771     0.93300
O88         O  0.41629524  0.70014352  0.05990078    -0.82800
O89         O  0.08575870  0.80512782  0.44048404    -0.82300
C90         C  0.19354387  0.88878107  0.41144659     0.97100
O91         O  0.16915010  0.87629667  0.39659468    -0.71400
O92         O  0.12175553  0.82769775  0.38472659    -0.75000
Al93       Al  0.12774111  0.87105784  0.41514618     1.49000
C94         C  0.13266843  0.79329727  0.38579151     0.92400
O95         O  0.16972795  0.77479883  0.47042463    -0.81200
O96         O  0.15873142  0.83317343  0.01449081    -0.74700
Al97       Al  0.12916425  0.79484106  0.45453654     1.90100
O98         O  0.20146869  0.82453578  0.46411385    -0.73800
O99         O  0.14393056  0.90240503  0.48887055    -0.73700
O100        O  0.19257205  0.89421292  0.44240898    -0.79300
O101        O  0.13029526  0.92054786  0.43874632    -0.77500
O102        O  0.14268069  0.84273250  0.44837484    -1.13700
O103        O  0.08529902  0.86768122  0.43046845    -0.72800
C104        C  0.07051405  0.83664377  0.43622014     0.97900
C105        C  0.19744538  0.78930964  0.47045664     0.94300
Al106      Al  0.17163795  0.86238415  0.47541219     1.55600
O107        O  0.14219292  0.77889704  0.41255291    -0.77500
C108        C  0.13318627  0.92789076  0.46942035     0.98400
C109        C  0.13477014  0.81193057  0.02021234     0.93300
O110        O  0.11500039  0.80556669  0.99750261    -0.82800
O111        O  0.88812002  0.80556103  0.99829048    -0.82300
C112        C  0.80902982  0.89089130  0.41246269     0.97100
O113        O  0.80916114  0.89462919  0.44360801    -0.71400
O114        O  0.80121796  0.82457852  0.46417696    -0.75000
Al115      Al  0.83040432  0.86236220  0.47643451     1.49000
C116        C  0.80553971  0.78948439  0.47100569     0.92400
O117        O  0.86034304  0.77991720  0.41338378    -0.81200
O118        O  0.91714609  0.86768891  0.43280626    -0.74700
Al119      Al  0.87360658  0.79512157  0.45544705     1.90100
O120        O  0.88051866  0.82897844  0.38627102    -0.73800
O121        O  0.87223086  0.92086287  0.44148737    -0.73700
O122        O  0.83362015  0.87843834  0.39805434    -0.79300
O123        O  0.85720977  0.90214207  0.49078263    -0.77500
O124        O  0.85973662  0.84320862  0.44965931    -1.13700
O125        O  0.84405368  0.83299195  0.01536996    -0.72800
C126        C  0.86877975  0.81260393  0.02113106     0.97900
C127        C  0.87011235  0.79444957  0.38689137     0.94300
Al128      Al  0.87472991  0.87196999  0.41710786     1.55600
O129        O  0.83338974  0.77496964  0.47138072    -0.77500
C130        C  0.86874127  0.92761621  0.47215693     0.98400
C131        C  0.93200051  0.83627803  0.43779437     0.93300
O132        O  0.91680283  0.80492515  0.44137307    -0.82800
O133        O  0.91933434  0.70380036  0.19280903    -0.82300
C134        C  0.81159466  0.61942802  0.16241859     0.97100
O135        O  0.83572459  0.63253666  0.14774962    -0.71400
O136        O  0.88257895  0.68175140  0.13657079    -0.75000
Al137      Al  0.87722062  0.63804561  0.16648151     1.49000
C138        C  0.87284576  0.71666018  0.13790209     0.92400
O139        O  0.83586891  0.73377876  0.22231152    -0.81200
O140        O  0.84656995  0.67477318  0.26562366    -0.74700
Al141      Al  0.87631580  0.71387204  0.20663443     1.90100
O142        O  0.80413446  0.68412869  0.21481182    -0.73800
O143        O  0.86129463  0.60600699  0.23995284    -0.73700
O144        O  0.81262541  0.61435201  0.19340158    -0.79300
O145        O  0.87515430  0.58829739  0.18993818    -0.77500
O146        O  0.86258764  0.66602844  0.19979449    -1.13700
O147        O  0.91977757  0.64152528  0.18165944    -0.72800
C148        C  0.93448739  0.67251500  0.18786647     0.97900
C149        C  0.80817750  0.71926690  0.22147961     0.94300
Al150      Al  0.83368084  0.64609232  0.22641754     1.55600
O151        O  0.86360659  0.73084293  0.16475487    -0.77500
C152        C  0.87231835  0.58078023  0.22059023     0.98400
C153        C  0.87065968  0.69555987  0.27192259     0.93300
O154        O  0.89054088  0.70225009  0.24957429    -0.82800
O155        O  0.11644742  0.70179587  0.24816228    -0.82300
C156        C  0.19448520  0.61484850  0.16262780     0.97100
O157        O  0.19384434  0.61070830  0.19372691    -0.71400
O158        O  0.20285885  0.68078982  0.21415085    -0.75000
Al159      Al  0.17309277  0.64386911  0.22617126     1.49000
C160        C  0.19905059  0.71606447  0.22056640     0.92400
O161        O  0.14385852  0.72802449  0.16317022    -0.81200
O162        O  0.08708329  0.64050525  0.18072132    -0.74700
Al163      Al  0.13080566  0.71221401  0.20511805     1.90100
O164        O  0.12440564  0.67915478  0.13523041    -0.73800
O165        O  0.13090479  0.58656629  0.19041127    -0.73700
O166        O  0.17046834  0.62871806  0.14786661    -0.79300
O167        O  0.14524013  0.60505763  0.24014284    -0.77500
O168        O  0.14422586  0.66397112  0.19906086    -1.13700
O169        O  0.16038365  0.67370528  0.26494241    -0.72800
C170        C  0.13610751  0.69466654  0.27090165     0.97900
C171        C  0.13481832  0.71367789  0.13629000     0.94300
Al172      Al  0.12932881  0.63577325  0.16603375     1.55600
O173        O  0.17142370  0.73125656  0.22095385    -0.77500
C174        C  0.13381745  0.57972982  0.22121422     0.98400
C175        C  0.07237789  0.67173431  0.18630958     0.93300
O176        O  0.08753199  0.70294668  0.19093380    -0.82800
O177        O  0.58974581  0.30358637  0.43925995    -0.82300
C178        C  0.69424244  0.39292320  0.41021491     0.97100
O179        O  0.67009005  0.37935325  0.39580351    -0.71400
O180        O  0.62491478  0.32840459  0.38391807    -0.75000
Al181      Al  0.62940824  0.37181970  0.41456238     1.49000
C182        C  0.63627275  0.29414105  0.38460038     0.92400
O183        O  0.67438889  0.27690270  0.46955678    -0.81200
O184        O  0.66171083  0.33447054  0.01336318    -0.74700
Al185      Al  0.63330720  0.29525603  0.45336990     1.90100
O186        O  0.70473890  0.32773993  0.46277071    -0.73800
O187        O  0.64547647  0.40287514  0.48814619    -0.73700
O188        O  0.69396826  0.39728783  0.44133230    -0.79300
O189        O  0.63028178  0.42124323  0.43863526    -0.77500
O190        O  0.64545469  0.34378212  0.44738168    -1.13700
O191        O  0.58747128  0.36627101  0.43002510    -0.72800
C192        C  0.57369278  0.33452017  0.43538525     0.97900
C193        C  0.70167760  0.29260655  0.46996733     0.94300
Al194      Al  0.67400053  0.36433293  0.47433094     1.55600
O195        O  0.64667601  0.28007473  0.41121575    -0.77500
C196        C  0.63323039  0.42801514  0.46940948     0.98400
C197        C  0.63801788  0.31274494  0.01912837     0.93300
O198        O  0.61866777  0.30530894  0.99628162    -0.82800
O199        O  0.39307393  0.30239657  0.99800262    -0.82300
C200        C  0.31272824  0.38779467  0.41279465     0.97100
O201        O  0.31371480  0.39181535  0.44389733    -0.71400
O202        O  0.30589240  0.32161308  0.46473128    -0.75000
Al203      Al  0.33541875  0.35929653  0.47630710     1.49000
C204        C  0.31030591  0.28643523  0.47133587     0.92400
O205        O  0.36463980  0.27556666  0.41335609    -0.81200
O206        O  0.42074971  0.36406152  0.43044562    -0.74700
Al207      Al  0.37817988  0.29161003  0.45517814     1.90100
O208        O  0.38334955  0.32476076  0.38529798    -0.73800
O209        O  0.37636262  0.41738359  0.44001635    -0.73700
O210        O  0.33669701  0.37445976  0.39785319    -0.79300
O211        O  0.36297092  0.39886361  0.48990826    -0.77500
O212        O  0.36409812  0.33965737  0.44907573    -1.13700
O213        O  0.34914397  0.32984457  0.01499834    -0.72800
C214        C  0.37348016  0.30880134  0.02072772     0.97900
C215        C  0.37347503  0.29002576  0.38649356     0.94300
Al216      Al  0.37822283  0.36809866  0.41589866     1.55600
O217        O  0.33809998  0.27174839  0.47152020    -0.77500
C218        C  0.37381213  0.42433166  0.47078318     0.98400
C219        C  0.43586031  0.33299220  0.43583823     0.93300
O220        O  0.42110210  0.30156551  0.44063796    -0.82800
O221        O  0.41961038  0.20104664  0.19108303    -0.82300
C222        C  0.31475872  0.11206683  0.16157444     0.97100
O223        O  0.33919559  0.12485060  0.14730041    -0.71400
O224        O  0.38488001  0.17536921  0.13545437    -0.75000
Al225      Al  0.37992818  0.13247587  0.16673420     1.49000
C226        C  0.37331540  0.20953386  0.13569829     0.92400
O227        O  0.33473423  0.22853529  0.21902273    -0.81200
O228        O  0.34666882  0.17158732  0.26423701    -0.74700
Al229      Al  0.37588029  0.20965250  0.20432769     1.90100
O230        O  0.30409808  0.17790585  0.21268826    -0.73800
O231        O  0.36280291  0.10270873  0.24046965    -0.73700
O232        O  0.31497379  0.10790494  0.19268762    -0.79300
O233        O  0.37861259  0.08348153  0.19159376    -0.77500
O234        O  0.36365551  0.16112221  0.19884433    -1.13700
O235        O  0.42193859  0.13824876  0.18287965    -0.72800
C236        C  0.43578434  0.17017788  0.18758104     0.97900
C237        C  0.30726253  0.21336138  0.21863833     0.94300
Al238      Al  0.33465343  0.14127984  0.22546805     1.55600
O239        O  0.36287091  0.22391345  0.16196408    -0.77500
C240        C  0.37492737  0.07702106  0.22232063     0.98400
C241        C  0.37050316  0.19298267  0.27029631     0.93300
O242        O  0.38996479  0.20044529  0.24769442    -0.82800
O243        O  0.61840928  0.20305728  0.24563985    -0.82300
C244        C  0.69657926  0.11594065  0.16127255     0.97100
O245        O  0.69566681  0.11107354  0.19229361    -0.71400
O246        O  0.70494622  0.18093765  0.21284827    -0.75000
Al247      Al  0.67481392  0.14411172  0.22461744     1.49000
C248        C  0.70112707  0.21622919  0.21916942     0.92400
O249        O  0.64646285  0.22737536  0.16052482    -0.81200
O250        O  0.58889570  0.14054107  0.17933011    -0.74700
Al251      Al  0.63293944  0.21251660  0.20259705     1.90100
O252        O  0.62584964  0.17873909  0.13317936    -0.73800
O253        O  0.63263461  0.08637130  0.18894878    -0.73700
O254        O  0.67229249  0.12882035  0.14632599    -0.79300
O255        O  0.64684506  0.10527539  0.23852909    -0.77500
O256        O  0.64608993  0.16409661  0.19722851    -1.13700
O257        O  0.66180466  0.17420108  0.26316930    -0.72800
C258        C  0.63789168  0.19597775  0.26858466     0.97900
C259        C  0.63689981  0.21296242  0.13387497     0.94300
Al260      Al  0.63107126  0.13562050  0.16439146     1.55600
O261        O  0.67354962  0.23156026  0.21863010    -0.77500
C262        C  0.63517631  0.07986880  0.21984477     0.98400
C263        C  0.57415598  0.17186138  0.18459076     0.93300
O264        O  0.58941247  0.20324026  0.18829677    -0.82800
O265        O  0.91843738  0.30437879  0.31202688    -0.82300
C266        C  0.81142972  0.39298724  0.33599972     0.97100
O267        O  0.83578554  0.38080445  0.35126005    -0.71400
O268        O  0.88207399  0.33091910  0.36551955    -0.75000
Al269      Al  0.87702251  0.37306519  0.33330042     1.49000
C270        C  0.87074788  0.29680039  0.36554368     0.92400
O271        O  0.83512355  0.27486085  0.28075134    -0.81200
O272        O  0.84706953  0.33115350  0.23561077    -0.74700
Al273      Al  0.87527525  0.29482767  0.29712825     1.90100
O274        O  0.80342336  0.32518152  0.28583487    -0.73800
O275        O  0.86059174  0.40110422  0.25850829    -0.73700
O276        O  0.81194102  0.39577794  0.30478580    -0.79300
O277        O  0.87522552  0.42136614  0.30754485    -0.77500
O278        O  0.86203727  0.34342113  0.30119309    -1.13700
O279        O  0.91949526  0.36746898  0.31858674    -0.72800
C280        C  0.93400027  0.33560018  0.31487828     0.97900
C281        C  0.80745819  0.28982985  0.27997690     0.94300
Al282      Al  0.83323644  0.36210869  0.27330952     1.55600
O283        O  0.86103188  0.28163821  0.33925138    -0.77500
C284        C  0.87178583  0.42730994  0.27666550     0.98400
C285        C  0.87135857  0.30971784  0.23081224     0.93300
O286        O  0.89045510  0.30304507  0.25417614    -0.82800
O287        O  0.11628563  0.30653025  0.25070016    -0.82300
C288        C  0.19515642  0.38973189  0.33773496     0.97100
O289        O  0.19479672  0.39431187  0.30663691    -0.71400
O290        O  0.20320049  0.32467195  0.28450105    -0.75000
Al291      Al  0.17351407  0.36277145  0.27332823     1.49000
C292        C  0.19928585  0.28999149  0.27621841     0.92400
O293        O  0.14510194  0.27839494  0.33520772    -0.81200
O294        O  0.08727747  0.36687717  0.31809200    -0.74700
Al295      Al  0.13123736  0.29488136  0.29344852     1.90100
O296        O  0.12487078  0.32689910  0.36337053    -0.73800
O297        O  0.13137497  0.42045200  0.30970139    -0.73700
O298        O  0.17082283  0.37670734  0.35196363    -0.79300
O299        O  0.14602291  0.40275547  0.25998095    -0.77500
O300        O  0.14466906  0.34283317  0.30002207    -1.13700
O301        O  0.16004028  0.33414777  0.23399648    -0.72800
C302        C  0.13593528  0.31308255  0.22805892     0.97900
C303        C  0.13592377  0.29251986  0.36213012     0.94300
Al304      Al  0.12972106  0.37073960  0.33324838     1.55600
O305        O  0.17163995  0.27524037  0.27656946    -0.77500
C306        C  0.13444883  0.42784613  0.27907208     0.98400
C307        C  0.07256909  0.33566598  0.31304787     0.93300
O308        O  0.08796393  0.30439090  0.30830200    -0.82800
O309        O  0.09076498  0.20362419  0.05825672    -0.82300
C310        C  0.19689005  0.11417508  0.08704495     0.97100
O311        O  0.17280259  0.12764030  0.10174869    -0.71400
O312        O  0.12675894  0.17867644  0.11397308    -0.75000
Al313      Al  0.13166592  0.13540444  0.08286917     1.49000
C314        C  0.13758116  0.21306335  0.11327774     0.92400
O315        O  0.17505111  0.23096282  0.02917275    -0.81200
O316        O  0.16363222  0.17429520  0.48466650    -0.74700
Al317      Al  0.13425338  0.21228357  0.04455653     1.90100
O318        O  0.20619769  0.18021882  0.03629412    -0.73800
O319        O  0.14788961  0.10548146  0.00885402    -0.73700
O320        O  0.19614721  0.11008291  0.05595538    -0.79300
O321        O  0.13298329  0.08635511  0.05809504    -0.77500
O322        O  0.14714347  0.16382700  0.05036630    -1.13700
O323        O  0.08945396  0.14093618  0.06721518    -0.72800
C324        C  0.07513358  0.17258442  0.06181904     0.97900
C325        C  0.20257354  0.21549993  0.02972083     0.94300
Al326      Al  0.17599179  0.14378856  0.02350546     1.55600
O327        O  0.14743055  0.22727005  0.08671836    -0.77500
C328        C  0.13603029  0.07996649  0.02725941     0.98400
C329        C  0.13945763  0.19558067  0.47872544     0.93300
O330        O  0.11989774  0.20246150  0.50140030    -0.82800
O331        O  0.89157407  0.20265289  0.50182676    -0.82300
C332        C  0.81506301  0.11745299  0.08864727     0.97100
O333        O  0.81543614  0.11288019  0.05759361    -0.71400
O334        O  0.80565228  0.18284487  0.03683768    -0.75000
Al335      Al  0.83546329  0.14534723  0.02463629     1.49000
C336        C  0.80931967  0.21806243  0.03020965     0.92400
O337        O  0.86543396  0.22837428  0.08723769    -0.81200
O338        O  0.92253272  0.14038467  0.06776668    -0.74700
Al339      Al  0.87789295  0.21298237  0.04508141     1.90100
O340        O  0.88638711  0.17953209  0.11453826    -0.73800
O341        O  0.87768684  0.08708131  0.06008409    -0.73700
O342        O  0.83944459  0.13035086  0.10322550    -0.79300
O343        O  0.86304776  0.10582071  0.01043054    -0.77500
O344        O  0.86474041  0.16491365  0.05123591    -1.13700
O345        O  0.84756352  0.17499459  0.48564485    -0.72800
C346        C  0.87144501  0.19617958  0.47947424     0.97900
C347        C  0.87523210  0.21386833  0.11385973     0.94300
Al348      Al  0.88040851  0.13636989  0.08394829     1.55600
O349        O  0.83696671  0.23280257  0.02984546    -0.77500
C350        C  0.87385433  0.07997809  0.02948456     0.98400
C351        C  0.93693317  0.17170605  0.06207068     0.93300
O352        O  0.92141435  0.20311003  0.05856467    -0.82800
C353        C  0.98882289  0.20724910  0.06122182    -0.21800
C354        C  0.97226795  0.17193825  0.06030072    -0.09800
C355        C  0.98988994  0.13715878  0.05820950     0.29100
C356        C  0.02319106  0.13782589  0.05833313    -0.21800
C357        C  0.03978212  0.17304153  0.06026029    -0.09800
C358        C  0.02219360  0.20791854  0.06116772     0.29100
F359        F  0.03708337  0.24268057  0.56284876    -0.20300
H360        H  0.97594045  0.23447187  0.06260769     0.17400
H361        H  0.03602155  0.11054801  0.05697254     0.17400
F362        F  0.97508485  0.10237973  0.05588925    -0.20300
C363        C  0.15674838  0.29545893  0.17217348    -0.21800
C364        C  0.13370367  0.29057545  0.19682296    -0.09800
C365        C  0.11205800  0.25946771  0.19376972     0.29100
C366        C  0.11410934  0.23363947  0.16721496    -0.21800
C367        C  0.13732313  0.23840310  0.14283557    -0.09800
C368        C  0.15849167  0.26992503  0.14541634     0.29100
F369        F  0.18148007  0.27561346  0.12246057    -0.20300
H370        H  0.17409706  0.31850930  0.17402878     0.17400
H371        H  0.09718222  0.21014322  0.16548986     0.17400
F372        F  0.08945201  0.25301767  0.21696301    -0.20300
C373        C  0.15983063  0.21326697  0.42263482    -0.21800
C374        C  0.13636840  0.21716416  0.44706682    -0.09800
C375        C  0.11270122  0.24620748  0.44304848     0.29100
C376        C  0.11324377  0.27119581  0.41587625    -0.21800
C377        C  0.13685171  0.26748442  0.39177227    -0.09800
C378        C  0.15998231  0.23789331  0.39514394     0.29100
F379        F  0.18335838  0.23349389  0.37235819    -0.20300
H380        H  0.17864685  0.19179228  0.42520779     0.17400
H381        H  0.09485558  0.29323198  0.41345722     0.17400
F382        F  0.08940380  0.25139408  0.46578841    -0.20300
C383        C  0.89631062  0.23209458  0.16952486    -0.21800
C384        C  0.87450468  0.23843004  0.14376362    -0.09800
C385        C  0.85311111  0.27004210  0.14590733     0.29100
C386        C  0.85333260  0.29428834  0.17349257    -0.21800
C387        C  0.87495819  0.28789831  0.19947738    -0.09800
C388        C  0.89676101  0.25657600  0.19703046     0.29100
F389        F  0.91789308  0.24860404  0.22163304    -0.20300
H390        H  0.91325230  0.20829333  0.16826479     0.17400
H391        H  0.83591691  0.31755496  0.17485711     0.17400
F392        F  0.83127831  0.27698277  0.12173107    -0.20300
C393        C  0.89736237  0.27058978  0.41604676    -0.21800
C394        C  0.87041228  0.27259969  0.39557183    -0.09800
C395        C  0.84486726  0.24726360  0.40137899     0.29100
C396        C  0.84614578  0.22084946  0.42754966    -0.21800
C397        C  0.87303446  0.21880537  0.44832196    -0.09800
C398        C  0.89888468  0.24380133  0.44200557     0.29100
F399        F  0.92556203  0.24278572  0.46109922    -0.20300
H400        H  0.91763979  0.28906093  0.41136640     0.17400
H401        H  0.82557932  0.20281374  0.43214276     0.17400
F402        F  0.81834110  0.24858268  0.38204764    -0.20300
C403        C  0.98632098  0.36938528  0.32030423    -0.21800
C404        C  0.96944697  0.33501111  0.31434389    -0.09800
C405        C  0.98684824  0.30081171  0.30780617     0.29100
C406        C  0.02025138  0.30126900  0.30731814    -0.21800
C407        C  0.03709741  0.33567927  0.31333469    -0.09800
C408        C  0.01962581  0.36985730  0.31986595     0.29100
F409        F  0.03453451  0.40393420  0.32599482    -0.20300
H410        H  0.97372974  0.39617485  0.32544991     0.17400
H411        H  0.03293078  0.27455363  0.30219509     0.17400
F412        F  0.97174565  0.26687997  0.30167012    -0.20300
C413        C  0.75610631  0.10683878  0.15946206    -0.21800
C414        C  0.72670283  0.10909503  0.14263540    -0.09800
C415        C  0.72697096  0.10975441  0.10783512     0.29100
C416        C  0.75583547  0.10990210  0.09060465    -0.21800
C417        C  0.78522059  0.11006522  0.10743128    -0.09800
C418        C  0.78505285  0.10760005  0.14217275     0.29100
F419        F  0.81279016  0.10719148  0.15957650    -0.20300
H420        H  0.75678500  0.10652711  0.18618403     0.17400
H421        H  0.75508596  0.11204384  0.06395024     0.17400
F422        F  0.69936640  0.11192267  0.09028294    -0.20300
C423        C  0.78540156  0.24042292  0.24252774    -0.21800
C424        C  0.78025203  0.26818144  0.26717986    -0.09800
C425        C  0.74897530  0.28025496  0.27448336     0.29100
C426        C  0.72332806  0.26498355  0.25704867    -0.21800
C427        C  0.72846401  0.23736500  0.23229398    -0.09800
C428        C  0.75973513  0.22509284  0.22511690     0.29100
F429        F  0.76547310  0.19838568  0.20123690    -0.20300
H430        H  0.80938940  0.23172282  0.23581622     0.17400
H431        H  0.69934960  0.27371755  0.26375974     0.17400
F432        F  0.74322775  0.30686943  0.29842991    -0.20300
C433        C  0.48848652  0.13688478  0.18245014    -0.21800
C434        C  0.47119211  0.17123782  0.18798818    -0.09800
C435        C  0.48814831  0.20589454  0.19314322     0.29100
C436        C  0.52155885  0.20595816  0.19209673    -0.21800
C437        C  0.53876371  0.17159890  0.18603423    -0.09800
C438        C  0.52172160  0.13689175  0.18149873     0.29100
F439        F  0.53698232  0.10271317  0.17594478    -0.20300
H440        H  0.47626952  0.10970042  0.17855673     0.17400
H441        H  0.53395996  0.23302856  0.19597066     0.17400
F442        F  0.47261209  0.23978079  0.19909482    -0.20300
C443        C  0.25559816  0.10176454  0.15835675    -0.21800
C444        C  0.28508001  0.10464813  0.14212737    -0.09800
C445        C  0.28508257  0.10548924  0.10730462     0.29100
C446        C  0.25628982  0.10579500  0.08953844    -0.21800
C447        C  0.22678720  0.10574856  0.10589978    -0.09800
C448        C  0.22679697  0.10251430  0.14058429     0.29100
F449        F  0.19897043  0.10155476  0.15752275    -0.20300
H450        H  0.25468292  0.10108300  0.18505257     0.17400
H451        H  0.25714573  0.10837262  0.06290968     0.17400
F452        F  0.31282062  0.10780910  0.09030571    -0.20300
C453        C  0.25659969  0.28758255  0.26175079    -0.21800
C454        C  0.22674519  0.26916611  0.26211859    -0.09800
C455        C  0.22297697  0.23409307  0.24503685     0.29100
C456        C  0.24895580  0.21730937  0.22901131    -0.21800
C457        C  0.27903031  0.23525017  0.22955338    -0.09800
C458        C  0.28239910  0.27109855  0.24542704     0.29100
F459        F  0.31079966  0.28975691  0.24622999    -0.20300
H460        H  0.26006228  0.31514733  0.27393720     0.17400
H461        H  0.24566054  0.18969301  0.21683047     0.17400
F462        F  0.19429007  0.21614744  0.24344809    -0.20300
C463        C  0.35148668  0.23402839  0.35489893    -0.21800
C464        C  0.37319164  0.26491276  0.35692176    -0.09800
C465        C  0.39575845  0.26943226  0.33180299     0.29100
C466        C  0.39595954  0.24419560  0.30483725    -0.21800
C467        C  0.37345809  0.21414694  0.30205411    -0.09800
C468        C  0.35138330  0.20904357  0.32770428     0.29100
F469        F  0.32920476  0.18060440  0.32625698    -0.20300
H470        H  0.33413622  0.22958936  0.37423700     0.17400
H471        H  0.41324653  0.24908430  0.28553060     0.17400
F472        F  0.41800006  0.29777779  0.33353689    -0.20300
C473        C  0.35252184  0.29063636  0.07612698    -0.21800
C474        C  0.37611656  0.28640103  0.05193959    -0.09800
C475        C  0.39872230  0.25604062  0.05543623     0.29100
C476        C  0.39708156  0.23027974  0.08208439    -0.21800
C477        C  0.37327931  0.23444299  0.10597292    -0.09800
C478        C  0.35110102  0.26513934  0.10285809     0.29100
F479        F  0.32746370  0.27003796  0.12528445    -0.20300
H480        H  0.33445112  0.31307421  0.07388541     0.17400
H481        H  0.41475499  0.20736419  0.08429218     0.17400
F482        F  0.42191363  0.25033555  0.03266321    -0.20300
C483        C  0.28740671  0.24083006  0.01136878    -0.21800
C484        C  0.28316124  0.26482024  0.48374212    -0.09800
C485        C  0.25224923  0.27418277  0.47273068     0.29100
C486        C  0.22592260  0.26009056  0.48949201    -0.21800
C487        C  0.23010424  0.23627583  0.01719623    -0.09800
C488        C  0.26102322  0.22652778  0.02805087     0.29100
F489        F  0.26562998  0.20338291  0.05480851    -0.20300
H490        H  0.31110818  0.23447887  0.02083178     0.17400
H491        H  0.20224968  0.26652240  0.48001864     0.17400
F492        F  0.24758823  0.29701642  0.44579660    -0.20300
C493        C  0.25423184  0.40127209  0.34145196    -0.21800
C494        C  0.22472621  0.39720859  0.35741287    -0.09800
C495        C  0.22455845  0.39556515  0.39225098     0.29100
C496        C  0.25324275  0.39527833  0.41021177    -0.21800
C497        C  0.28279660  0.39631896  0.39403904    -0.09800
C498        C  0.28292788  0.40072858  0.35943856     0.29100
F499        F  0.31084422  0.40313336  0.34277407    -0.20300
H500        H  0.25527307  0.40282511  0.31479629     0.17400
H501        H  0.25229687  0.39194961  0.43677887     0.17400
F502        F  0.19677194  0.39245031  0.40907046    -0.20300
C503        C  0.72478081  0.24187217  0.00614360    -0.21800
C504        C  0.72949492  0.27207503  0.48358072    -0.09800
C505        C  0.76046951  0.28653515  0.47873378     0.29100
C506        C  0.78621407  0.27047969  0.49584247    -0.21800
C507        C  0.78155608  0.23986408  0.01800759    -0.09800
C508        C  0.75050147  0.22593682  0.02335809     0.29100
F509        F  0.74498828  0.19668701  0.04500673    -0.20300
H510        H  0.70102311  0.23128598  0.01120435     0.17400
H511        H  0.80996885  0.28104274  0.49075140     0.17400
F512        F  0.76595419  0.31607681  0.45736627    -0.20300
C513        C  0.75309008  0.40543853  0.40696013    -0.21800
C514        C  0.72359032  0.40117138  0.39076931    -0.09800
C515        C  0.72330885  0.39982678  0.35593581     0.29100
C516        C  0.75192924  0.40008503  0.33817626    -0.21800
C517        C  0.78153028  0.40132077  0.35455766    -0.09800
C518        C  0.78172719  0.40537106  0.38918947     0.29100
F519        F  0.80965165  0.40767854  0.40611868    -0.20300
H520        H  0.75419838  0.40665836  0.43364124     0.17400
H521        H  0.75090717  0.39694840  0.31159340     0.17400
F522        F  0.69549903  0.39638402  0.33893401    -0.20300
C523        C  0.61651883  0.25240542  0.30020600    -0.21800
C524        C  0.63521154  0.21829465  0.29978674    -0.09800
C525        C  0.65429371  0.20962733  0.32744883     0.29100
C526        C  0.65462060  0.23459936  0.35466789    -0.21800
C527        C  0.63638843  0.26908758  0.35479058    -0.09800
C528        C  0.61723554  0.27767324  0.32717208     0.29100
F529        F  0.59900830  0.31030555  0.32616964    -0.20300
H530        H  0.60202750  0.26038581  0.27904964     0.17400
H531        H  0.66951189  0.22703519  0.37564024     0.17400
F532        F  0.67291791  0.17731574  0.32813610    -0.20300
C533        C  0.66149923  0.29034197  0.07277578    -0.21800
C534        C  0.63563543  0.29078586  0.05061822    -0.09800
C535        C  0.61019707  0.26485700  0.05610377     0.29100
C536        C  0.61132470  0.23849464  0.08240693    -0.21800
C537        C  0.63737371  0.23786538  0.10415675    -0.09800
C538        C  0.66232860  0.26439593  0.09934070     0.29100
F539        F  0.68800991  0.26451421  0.11986961    -0.20300
H540        H  0.68170463  0.30921407  0.06894221     0.17400
H541        H  0.59146309  0.21907616  0.08620547     0.17400
F542        F  0.58438616  0.26438008  0.03576249    -0.20300
C543        C  0.52109469  0.36470168  0.42235825    -0.21800
C544        C  0.53846500  0.33373145  0.43618762    -0.09800
C545        C  0.52181275  0.30269879  0.45048157     0.29100
C546        C  0.48844122  0.30254638  0.45024586    -0.21800
C547        C  0.47112018  0.33340121  0.43606951    -0.09800
C548        C  0.48786314  0.36466368  0.42224327     0.29100
F549        F  0.47225764  0.39495738  0.90793190    -0.20300
H550        H  0.53326295  0.38894277  0.41114565     0.17400
H551        H  0.47613899  0.27843347  0.46149214     0.17400
F552        F  0.53766087  0.27291478  0.46526085    -0.20300
C553        C  0.12564450  0.53676693  0.27018534    -0.21800
C554        C  0.12661429  0.54115337  0.23558379    -0.09800
C555        C  0.12498372  0.50783349  0.21580415     0.29100
C556        C  0.12520869  0.47107502  0.23041574    -0.21800
C557        C  0.12698226  0.46664206  0.26497939    -0.09800
C558        C  0.12579366  0.49997515  0.28480712     0.29100
F559        F  0.12723529  0.49725653  0.31819791    -0.20300
H560        H  0.12646864  0.56193315  0.28611265     0.17400
H561        H  0.12566724  0.44591635  0.21446491     0.17400
F562        F  0.12562284  0.51048916  0.18239537    -0.20300
C563        C  0.88377667  0.49829735  0.28163646    -0.21800
C564        C  0.87829392  0.46586528  0.26157201    -0.09800
C565        C  0.87564023  0.47153175  0.22706011     0.29100
C566        C  0.87613723  0.50890026  0.21355366    -0.21800
C567        C  0.87903595  0.54145184  0.23397094    -0.09800
C568        C  0.88408689  0.53568243  0.26809536     0.29100
F569        F  0.88812738  0.56631664  0.28865338    -0.20300
H570        H  0.88624030  0.49497683  0.30809878     0.17400
H571        H  0.87226044  0.51243958  0.18726421     0.17400
F572        F  0.87097108  0.44120866  0.20630398    -0.20300
C573        C  0.98648174  0.64045427  0.17553483    -0.21800
C574        C  0.96976709  0.67233518  0.18845741    -0.09800
C575        C  0.98713263  0.70378720  0.20128938     0.29100
C576        C  0.02045934  0.70344256  0.20045744    -0.21800
C577        C  0.03712172  0.67173447  0.18711837    -0.09800
C578        C  0.01972521  0.64002943  0.17481610     0.29100
F579        F  0.03467795  0.60880966  0.16144120    -0.20300
H580        H  0.97379519  0.61587515  0.16546733     0.17400
H581        H  0.03324851  0.72795134  0.21052397     0.17400
F582        F  0.97205518  0.73469633  0.21501761    -0.20300
C583        C  0.87597145  0.97064880  0.02126175    -0.21800
C584        C  0.87599976  0.96609733  0.48667564    -0.09800
C585        C  0.87964265  0.99914216  0.46680242     0.29100
C586        C  0.88115857  0.03591695  0.48121775    -0.21800
C587        C  0.87909867  0.04064974  0.01567462    -0.09800
C588        C  0.87749636  0.00743724  0.03567760     0.29100
F589        F  0.87499747  0.01049080  0.06896337    -0.20300
H590        H  0.87333772  0.94573201  0.03729064     0.17400
H591        H  0.88246767  0.06097334  0.46518895     0.17400
F592        F  0.87964065  0.99634558  0.43340072    -0.20300
C593        C  0.89378376  0.74940884  0.30524330    -0.21800
C594        C  0.87289107  0.71760902  0.30324006    -0.09800
C595        C  0.85107719  0.71170043  0.32896449     0.29100
C596        C  0.85011358  0.73721426  0.35571120    -0.21800
C597        C  0.87046813  0.76946265  0.35725807    -0.09800
C598        C  0.89246277  0.77525243  0.33176699     0.29100
F599        F  0.91301671  0.80547233  0.33264722    -0.20300
H600        H  0.91055195  0.75518767  0.28562271     0.17400
H601        H  0.83306441  0.73192374  0.37518197     0.17400
F602        F  0.83021811  0.68179624  0.32806598    -0.20300
C603        C  0.89102251  0.75709662  0.05308605    -0.21800
C604        C  0.87282075  0.79156678  0.05273492    -0.09800
C605        C  0.85556596  0.80179462  0.08103873     0.29100
C606        C  0.85587610  0.77736728  0.10863817    -0.21800
C607        C  0.87300077  0.74204857  0.10839728    -0.09800
C608        C  0.89100329  0.73247002  0.08042897     0.29100
F609        F  0.90859193  0.69933680  0.07935287    -0.20300
H610        H  0.90435376  0.74818898  0.03153450     0.17400
H611        H  0.84217521  0.78584469  0.13006651     0.17400
F612        F  0.83810493  0.83503323  0.08192617    -0.20300
C613        C  0.12101818  0.97204734  0.51683506    -0.21800
C614        C  0.12678585  0.96719801  0.48284301    -0.09800
C615        C  0.13077866  0.00032905  0.46319453     0.29100
C616        C  0.13155424  0.03706224  0.97773366    -0.21800
C617        C  0.12835872  0.04175930  0.01215457    -0.09800
C618        C  0.12153735  0.00891563  0.03138369     0.29100
F619        F  0.11719760  0.01197653  0.06444335    -0.20300
H620        H  0.11745512  0.94699732  0.53248487     0.17400
H621        H  0.13639799  0.06174519  0.96204611     0.17400
F622        F  0.13666322  0.99714711  0.43039371    -0.20300
C623        C  0.10647553  0.76529679  0.33588908    -0.21800
C624        C  0.13343137  0.76845238  0.35622496    -0.09800
C625        C  0.16008323  0.74463992  0.35009330     0.29100
C626        C  0.16004349  0.71890510  0.32346326    -0.21800
C627        C  0.13331148  0.71603826  0.30257440    -0.09800
C628        C  0.10619611  0.73913179  0.30947481     0.29100
F629        F  0.07953329  0.73692980  0.29045618    -0.20300
H630        H  0.08537954  0.78260796  0.34085923     0.17400
H631        H  0.18148205  0.70228248  0.31848350     0.17400
F632        F  0.18660107  0.74719616  0.36930618    -0.20300
C633        C  0.15418012  0.79598749  0.07730992    -0.21800
C634        C  0.13244958  0.78950020  0.05147100    -0.09800
C635        C  0.11180072  0.75733816  0.05373484     0.29100
C636        C  0.11335543  0.73226916  0.08084703    -0.21800
C637        C  0.13507691  0.73875726  0.10655753    -0.09800
C638        C  0.15540219  0.77115509  0.10465582     0.29100
F639        F  0.17705401  0.77839537  0.12885905    -0.20300
H640        H  0.17078656  0.81987525  0.07604977     0.17400
H641        H  0.09721020  0.70791525  0.08189227     0.17400
F642        F  0.09073619  0.74906194  0.02924388    -0.20300
C643        C  0.01850767  0.80350103  0.44712443    -0.21800
C644        C  0.03507010  0.83695916  0.43748553    -0.09800
C645        C  0.01733932  0.87039044  0.42902119     0.29100
C646        C  0.98402111  0.86988699  0.42954928    -0.21800
C647        C  0.96743650  0.83624556  0.43855453    -0.09800
C648        C  0.98511730  0.80306800  0.44778206     0.29100
F649        F  0.97029351  0.77018951  0.95762342    -0.20300
H650        H  0.03141044  0.77749725  0.45421403     0.17400
H651        H  0.97118021  0.89593922  0.42247270     0.17400
F652        F  0.03201436  0.90358917  0.41973302    -0.20300
C653        C  0.38297177  0.46757606  0.01940298    -0.21800
C654        C  0.38081201  0.46314863  0.48487390    -0.09800
C655        C  0.38111062  0.49654117  0.46501799     0.29100
C656        C  0.38055191  0.53332382  0.47958486    -0.21800
C657        C  0.37988549  0.53770318  0.01418384    -0.09800
C658        C  0.38262951  0.50436585  0.03397162     0.29100
F659        F  0.38264725  0.50699384  0.06738567    -0.20300
H660        H  0.38329923  0.44237802  0.03536486     0.17400
H661        H  0.37898536  0.55846053  0.46362184     0.17400
F662        F  0.37948884  0.49385035  0.43163980    -0.20300
C663        C  0.28198501  0.76290968  0.49203371    -0.21800
C664        C  0.27720264  0.73423710  0.01597678    -0.09800
C665        C  0.24605418  0.72190554  0.02303845     0.29100
C666        C  0.22015474  0.73826210  0.00640331    -0.21800
C667        C  0.22492765  0.76711672  0.48261002    -0.09800
C668        C  0.25611087  0.77918187  0.47533938     0.29100
F669        F  0.26159437  0.80670168  0.45211195    -0.20300
H670        H  0.30585437  0.77181374  0.48540816     0.17400
H671        H  0.19628810  0.72940140  0.01305404     0.17400
F672        F  0.24062595  0.69424857  0.04615891    -0.20300
C673        C  0.22283544  0.60687486  0.10863144    -0.21800
C674        C  0.22384404  0.60564450  0.14335787    -0.09800
C675        C  0.25370808  0.60045393  0.15891918     0.29100
C676        C  0.28183428  0.60006159  0.14025329    -0.21800
C677        C  0.28089368  0.60398345  0.10567867    -0.09800
C678        C  0.25088068  0.60576651  0.08996175     0.29100
F679        F  0.24854817  0.60941264  0.05668220    -0.20300
H680        H  0.20028929  0.61051614  0.09581097     0.17400
H681        H  0.30452190  0.59825740  0.15304359     0.17400
F682        F  0.25605196  0.59820685  0.19228068    -0.20300
C683        C  0.62377746  0.50824792  0.03249944    -0.21800
C684        C  0.62523233  0.54126798  0.01243661    -0.09800
C685        C  0.62326221  0.53654631  0.47782203     0.29100
C686        C  0.62329670  0.49946281  0.46378618    -0.21800
C687        C  0.62519222  0.46641521  0.48387367    -0.09800
C688        C  0.62372098  0.47119850  0.01848275     0.29100
F689        F  0.62393964  0.44005445  0.03898667    -0.20300
H690        H  0.62472467  0.51094489  0.05910919     0.17400
H691        H  0.62387295  0.49674263  0.43716432     0.17400
F692        F  0.62290660  0.56773845  0.45735873    -0.20300
C693        C  0.75536248  0.72520502  0.52390723    -0.21800
C694        C  0.72455793  0.73798639  0.01525062    -0.09800
C695        C  0.72063639  0.76561211  0.99008385     0.29100
C696        C  0.74725020  0.78036935  0.97415470    -0.21800
C697        C  0.77807060  0.76780552  0.48298828    -0.09800
C698        C  0.78197149  0.73989656  0.50792873     0.29100
F699        F  0.81142605  0.72813040  0.51794304    -0.20300
H700        H  0.75880729  0.70339123  0.54290517     0.17400
H701        H  0.74380898  0.80216894  0.95515410     0.17400
F702        F  0.69117238  0.77718057  0.97993096    -0.20300
C703        C  0.72339381  0.61218689  0.14058957    -0.21800
C704        C  0.72399730  0.61008734  0.10589493    -0.09800
C705        C  0.75390133  0.60664008  0.09032376     0.29100
C706        C  0.78225471  0.60792521  0.10892957    -0.21800
C707        C  0.78159627  0.61189879  0.14349295    -0.09800
C708        C  0.75168363  0.61285410  0.15919479     0.29100
F709        F  0.74959786  0.61707562  0.19241464    -0.20300
H710        H  0.70090105  0.61489376  0.15341823     0.17400
H711        H  0.80484356  0.60698747  0.09611535     0.17400
F712        F  0.75596582  0.60421568  0.05697677    -0.20300
C713        C  0.48502642  0.63563449  0.06870078    -0.21800
C714        C  0.46763909  0.67004966  0.06345905    -0.09800
C715        C  0.48445617  0.70463484  0.05774415     0.29100
C716        C  0.51782062  0.70445220  0.05709146    -0.21800
C717        C  0.53517967  0.66997186  0.06222079    -0.09800
C718        C  0.51830233  0.63545303  0.06817482     0.29100
F719        F  0.53376496  0.60132367  0.07358041    -0.20300
H720        H  0.47286390  0.60856576  0.07328064     0.17400
H721        H  0.53007030  0.73146724  0.05262428     0.17400
F722        F  0.46882396  0.73872003  0.55276126    -0.20300
C723        C  0.62586794  0.99907242  0.28286672    -0.21800
C724        C  0.62455818  0.96628685  0.26255250    -0.09800
C725        C  0.62126438  0.97172585  0.22813179     0.29100
C726        C  0.62251198  0.00899251  0.21435028    -0.21800
C727        C  0.62699340  0.04157066  0.23451751    -0.09800
C728        C  0.62706980  0.03629074  0.26914975     0.29100
F729        F  0.62995392  0.06691232  0.28993472    -0.20300
H730        H  0.62807823  0.99586255  0.30937407     0.17400
H731        H  0.62172525  0.01207715  0.18775285     0.17400
F732        F  0.61827192  0.94089441  0.20758634    -0.20300
C733        C  0.72326562  0.74491437  0.23920925    -0.21800
C734        C  0.72708427  0.77064245  0.26559581    -0.09800
C735        C  0.75785075  0.78190494  0.27548478     0.29100
C736        C  0.78443651  0.76713063  0.25926472    -0.21800
C737        C  0.78057981  0.74110042  0.23306388    -0.09800
C738        C  0.74980097  0.73036179  0.22287497     0.29100
F739        F  0.74543307  0.70566194  0.19720299    -0.20300
H740        H  0.69970793  0.73721552  0.23042414     0.17400
H741        H  0.80801629  0.77476394  0.26806574     0.17400
F742        F  0.76216226  0.80700509  0.30089526    -0.20300
C743        C  0.75129604  0.90198882  0.34007206    -0.21800
C744        C  0.72162897  0.89903663  0.35588032    -0.09800
C745        C  0.72112863  0.89841913  0.39070689     0.29100
C746        C  0.74962197  0.89844856  0.40893085    -0.21800
C747        C  0.77934657  0.89868087  0.39305283    -0.09800
C748        C  0.77983430  0.90162442  0.35832414     0.29100
F749        F  0.80789788  0.90268726  0.34181169    -0.20300
H750        H  0.75255973  0.90244803  0.31338600     0.17400
H751        H  0.74836295  0.89606864  0.43554787     0.17400
F752        F  0.69316105  0.89604098  0.40729890    -0.20300
C753        C  0.65762236  0.73964304  0.39520520    -0.21800
C754        C  0.63373375  0.76807820  0.39132682    -0.09800
C755        C  0.60872235  0.76955653  0.41419684     0.29100
C756        C  0.60816255  0.74363360  0.44082018    -0.21800
C757        C  0.63264030  0.71589595  0.44539584    -0.09800
C758        C  0.65731575  0.71401335  0.42196687     0.29100
F759        F  0.68178409  0.68834999  0.42534960    -0.20300
H760        H  0.67696258  0.73763353  0.37764141     0.17400
H761        H  0.58892508  0.74609416  0.45844283     0.17400
F762        F  0.58446337  0.79544396  0.41045551    -0.20300
C763        C  0.65525891  0.76845382  0.14357021    -0.21800
C764        C  0.63269865  0.73856047  0.14114584    -0.09800
C765        C  0.60939951  0.73526611  0.16568610     0.29100
C766        C  0.60922745  0.76087238  0.19244460    -0.21800
C767        C  0.63249855  0.79002737  0.19559192    -0.09800
C768        C  0.65541100  0.79374201  0.17054634     0.29100
F769        F  0.67855027  0.82098433  0.17245282    -0.20300
H770        H  0.67325141  0.77185027  0.12470940     0.17400
H771        H  0.59131829  0.75699465  0.21130469     0.17400
F772        F  0.58643401  0.70782020  0.16354222    -0.20300
C773        C  0.37849805  0.03393433  0.27192843    -0.21800
C774        C  0.38198069  0.03853511  0.23752495    -0.09800
C775        C  0.38808808  0.00539356  0.21834360     0.29100
C776        C  0.38747662  0.96848305  0.23287710    -0.21800
C777        C  0.38125367  0.96386015  0.26680673    -0.09800
C778        C  0.37815516  0.99714010  0.28645841     0.29100
F779        F  0.37204830  0.99420626  0.31922995    -0.20300
H780        H  0.37421464  0.05883377  0.28757721     0.17400
H781        H  0.39045517  0.94329734  0.21723402     0.17400
F782        F  0.39266466  0.00829050  0.18530743    -0.20300
C783        C  0.39700062  0.76318433  0.41433209    -0.21800
C784        C  0.37040239  0.76522859  0.39333558    -0.09800
C785        C  0.34432088  0.74081535  0.39927442     0.29100
C786        C  0.34465634  0.71539144  0.42619020    -0.21800
C787        C  0.37109429  0.71351488  0.44762064    -0.09800
C788        C  0.39755152  0.73743863  0.44108177     0.29100
F789        F  0.42381594  0.73650302  0.46078725    -0.20300
H790        H  0.41761985  0.78110407  0.40967125     0.17400
H791        H  0.32363719  0.69821552  0.43093647     0.17400
F792        F  0.31801213  0.74251873  0.37965079    -0.20300
C793        C  0.39542062  0.75724014  0.19428063    -0.21800
C794        C  0.37271905  0.78735204  0.19741938    -0.09800
C795        C  0.34924660  0.79147514  0.17268214     0.29100
C796        C  0.34829059  0.76571110  0.14606012    -0.21800
C797        C  0.37033918  0.73496028  0.14357041    -0.09800
C798        C  0.39419622  0.73120854  0.16780649     0.29100
F799        F  0.41670242  0.70288597  0.16564476    -0.20300
H800        H  0.41367639  0.75298170  0.21293874     0.17400
H801        H  0.32988335  0.76953005  0.12747788     0.17400
F802        F  0.32656531  0.81961401  0.17457147    -0.20300
C803        C  0.48523149  0.86624113  0.31358947    -0.21800
C804        C  0.46896242  0.83082416  0.31243487    -0.09800
C805        C  0.48673879  0.79616347  0.31012275     0.29100
C806        C  0.52007158  0.79724632  0.30925527    -0.21800
C807        C  0.53626800  0.83275867  0.31071077    -0.09800
C808        C  0.51838307  0.86735131  0.31273576     0.29100
F809        F  0.53273809  0.90248953  0.31391876    -0.20300
H810        H  0.47228439  0.89341763  0.31515045     0.17400
H811        H  0.53320213  0.77018791  0.30777313     0.17400
F812        F  0.47210719  0.76120337  0.30910713    -0.20300
C813        C  0.28378658  0.73956731  0.24165535    -0.21800
C814        C  0.27933704  0.76819054  0.26568393    -0.09800
C815        C  0.24838072  0.78142560  0.27301815     0.29100
C816        C  0.22228943  0.76611807  0.25641742    -0.21800
C817        C  0.22671331  0.73737027  0.23248489    -0.09800
C818        C  0.25770036  0.72426511  0.22504023     0.29100
F819        F  0.26275573  0.69655117  0.20183136    -0.20300
H820        H  0.30754058  0.72999862  0.23489461     0.17400
H821        H  0.19855337  0.77566440  0.26322480     0.17400
F822        F  0.24335509  0.80908283  0.29627220    -0.20300
C823        C  0.22333550  0.89753144  0.35807208    -0.21800
C824        C  0.22375963  0.89497045  0.39276305    -0.09800
C825        C  0.25359567  0.89386136  0.40891823     0.29100
C826        C  0.28198277  0.89344121  0.39073651    -0.21800
C827        C  0.28159024  0.89456274  0.35600430    -0.09800
C828        C  0.25179714  0.89764047  0.33987199     0.29100
F829        F  0.24993667  0.89852272  0.30643349    -0.20300
H830        H  0.20082785  0.89827072  0.34486387     0.17400
H831        H  0.30439046  0.89083228  0.40397080     0.17400
F832        F  0.25548471  0.89068871  0.44225590    -0.20300
O833        O  0.41823266  0.79993139  0.80958604    -0.82300
C834        C  0.31173817  0.88758894  0.83726964     0.97100
O835        O  0.33582881  0.87406699  0.85222879    -0.71400
O836        O  0.38242825  0.82400486  0.86459294    -0.75000
Al837      Al  0.37719401  0.86755782  0.83418315     1.49000
C838        C  0.37101975  0.79004059  0.86365754     0.92400
O839        O  0.33436931  0.77321637  0.77856796    -0.81200
O840        O  0.34712945  0.83164220  0.73465294    -0.74700
Al841      Al  0.37494138  0.79138054  0.79493540     1.90100
O842        O  0.30357652  0.82444437  0.78414982    -0.73800
O843        O  0.36266019  0.89996614  0.76047934    -0.73700
O844        O  0.31305713  0.89337701  0.80634257    -0.79300
O845        O  0.37566059  0.91734550  0.81082203    -0.77500
O846        O  0.36224436  0.83993113  0.80079519    -1.13700
O847        O  0.41933266  0.86260876  0.81912909    -0.72800
C848        C  0.43371395  0.83102685  0.81367627     0.97900
C849        C  0.30702145  0.78905774  0.77804917     0.94300
Al850      Al  0.33407974  0.86101748  0.77345703     1.55600
O851        O  0.36111800  0.77607592  0.83693562    -0.77500
C852        C  0.37358897  0.92489331  0.78011451     0.98400
C853        C  0.37056630  0.80922357  0.72898061     0.93300
O854        O  0.38981136  0.80111294  0.75191583    -0.82800
O855        O  0.61620717  0.80376213  0.75006688    -0.82300
C856        C  0.69217186  0.89132238  0.83621714     0.97100
O857        O  0.69175568  0.89605019  0.80511777    -0.71400
O858        O  0.70224088  0.82661475  0.78422562    -0.75000
Al859      Al  0.67161792  0.86313354  0.77205368     1.49000
C860        C  0.69914182  0.79133125  0.77776152     0.92400
O861        O  0.64471487  0.77933562  0.83543109    -0.81200
O862        O  0.58548813  0.86546464  0.81536669    -0.74700
Al863      Al  0.63098152  0.79411061  0.79317293     1.90100
O864        O  0.62225576  0.82740273  0.86219206    -0.73800
O865        O  0.62859653  0.92023728  0.80729311    -0.73700
O866        O  0.66800171  0.87784647  0.85047023    -0.79300
O867        O  0.64310790  0.90191780  0.75772606    -0.77500
O868        O  0.64313577  0.84267667  0.79883960    -1.13700
O869        O  0.65914085  0.83315202  0.73315149    -0.72800
C870        C  0.63542544  0.81144438  0.72728045     0.97900
C871        C  0.63385633  0.79326506  0.86173965     0.94300
Al872      Al  0.62727168  0.87078559  0.83139231     1.55600
O873        O  0.67187442  0.77567174  0.77743390    -0.77500
C874        C  0.63151727  0.92726460  0.77656863     0.98400
C875        C  0.57152875  0.83364434  0.81085174     0.93300
O876        O  0.58748617  0.80259319  0.80724825    -0.82800
O877        O  0.58542947  0.70160638  0.55661172    -0.82300
C878        C  0.69397258  0.61666821  0.58652042     0.97100
O879        O  0.66948582  0.62938719  0.60094243    -0.71400
O880        O  0.62252950  0.67867185  0.61277024    -0.75000
Al881      Al  0.62813364  0.63534102  0.58221019     1.49000
C882        C  0.63240700  0.71340161  0.61160572     0.92400
O883        O  0.66924350  0.73155497  0.52719817    -0.81200
O884        O  0.65923347  0.67351598  0.98369174    -0.74700
Al885      Al  0.62872171  0.71171874  0.54272382     1.90100
O886        O  0.70127869  0.68182009  0.53508706    -0.73800
O887        O  0.64489712  0.60480249  0.50842270    -0.73700
O888        O  0.69317847  0.61159948  0.55554603    -0.79300
O889        O  0.63024173  0.58609648  0.55789104    -0.77500
O890        O  0.64272818  0.66374496  0.54921827    -1.13700
O891        O  0.58571977  0.63923341  0.56719986    -0.72800
C892        C  0.57057512  0.67027470  0.56179870     0.97900
C893        C  0.69705639  0.71682166  0.52775936     0.94300
Al894      Al  0.67210192  0.64416949  0.52271710     1.55600
O895        O  0.64141134  0.72784115  0.58479579    -0.77500
C896        C  0.63305841  0.57955129  0.52705292     0.98400
C897        C  0.63494273  0.69425955  0.97710675     0.93300
O898        O  0.61479781  0.70097657  0.99934431    -0.82800
O899        O  0.38774254  0.69961984  0.00230647    -0.82300
C900        C  0.31073829  0.61174987  0.58697378     0.97100
O901        O  0.31158351  0.60750675  0.55589704    -0.71400
O902        O  0.30135336  0.67741960  0.53503998    -0.75000
Al903      Al  0.33200194  0.64055848  0.52351363     1.49000
C904        C  0.30480328  0.71274566  0.52871301     0.92400
O905        O  0.35932545  0.72385112  0.58752560    -0.81200
O906        O  0.41827629  0.63741506  0.56882479    -0.74700
Al907      Al  0.37294818  0.70906871  0.54539579     1.90100
O908        O  0.38070938  0.67521603  0.61476395    -0.73800
O909        O  0.37489293  0.58299897  0.55936754    -0.73700
O910        O  0.33480662  0.62476143  0.60201518    -0.79300
O911        O  0.36042278  0.60169695  0.50969534    -0.77500
O912        O  0.36045708  0.66058717  0.55089424    -1.13700
O913        O  0.34471636  0.67054461  0.98495836    -0.72800
C914        C  0.36849407  0.69210854  0.97933145     0.97900
C915        C  0.36977240  0.70966249  0.61404653     0.94300
Al916      Al  0.37596546  0.63210923  0.58376418     1.55600
O917        O  0.33222245  0.72802243  0.52921665    -0.77500
C918        C  0.37210266  0.57625773  0.52858070     0.98400
C919        C  0.43227412  0.66919003  0.56396776     0.93300
O920        O  0.41629511  0.70014343  0.55990080    -0.82800
O921        O  0.08575867  0.80512836  0.94048392    -0.82300
C922        C  0.19354415  0.88878096  0.91144698     0.97100
O923        O  0.16915039  0.87629649  0.89659484    -0.71400
O924        O  0.12175575  0.82769726  0.88472652    -0.75000
Al925      Al  0.12774135  0.87105764  0.91514608     1.49000
C926        C  0.13266831  0.79329752  0.88579153     0.92400
O927        O  0.16972746  0.77479832  0.97042486    -0.81200
O928        O  0.15873151  0.83317360  0.51449065    -0.74700
Al929      Al  0.12916406  0.79484097  0.95453660     1.90100
O930        O  0.20146832  0.82453517  0.96411393    -0.73800
O931        O  0.14393064  0.90240500  0.98887036    -0.73700
O932        O  0.19257209  0.89421286  0.94240926    -0.79300
O933        O  0.13029545  0.92054763  0.93874600    -0.77500
O934        O  0.14268071  0.84273233  0.94837485    -1.13700
O935        O  0.08529914  0.86768168  0.93046822    -0.72800
C936        C  0.07051437  0.83664291  0.93622018     0.97900
C937        C  0.19744516  0.78930946  0.97045689     0.94300
Al938      Al  0.17163793  0.86238390  0.97541230     1.55600
O939        O  0.14219295  0.77889662  0.91255298    -0.77500
C940        C  0.13318667  0.92789053  0.96942050     0.98400
C941        C  0.13477033  0.81193079  0.52021217     0.93300
O942        O  0.11500051  0.80556685  0.49750245    -0.82800
O943        O  0.88811984  0.80556092  0.49829092    -0.82300
C944        C  0.80903014  0.89089139  0.91246229     0.97100
O945        O  0.80916126  0.89462918  0.94360767    -0.71400
O946        O  0.80121740  0.82457811  0.96417705    -0.75000
Al947      Al  0.83040421  0.86236196  0.97643434     1.49000
C948        C  0.80553923  0.78948413  0.97100587     0.92400
O949        O  0.86034300  0.77991723  0.91338364    -0.81200
O950        O  0.91714583  0.86768918  0.93280627    -0.74700
Al951      Al  0.87360654  0.79512153  0.95544688     1.90100
O952        O  0.88051872  0.82897860  0.88627104    -0.73800
O953        O  0.87223084  0.92086246  0.94148726    -0.73700
O954        O  0.83362038  0.87843835  0.89805410    -0.79300
O955        O  0.85720967  0.90214155  0.99078248    -0.77500
O956        O  0.85973663  0.84320851  0.94965920    -1.13700
O957        O  0.84405358  0.83299203  0.51537028    -0.72800
C958        C  0.86877956  0.81260382  0.52113150     0.97900
C959        C  0.87011237  0.79444979  0.88689122     0.94300
Al960      Al  0.87472995  0.87196999  0.91710779     1.55600
O961        O  0.83338942  0.77496948  0.97138068    -0.77500
C962        C  0.86874121  0.92761599  0.97215651     0.98400
C963        C  0.93200036  0.83627862  0.93779424     0.93300
O964        O  0.91680282  0.80492536  0.94137293    -0.82800
O965        O  0.91933452  0.70380069  0.69280899    -0.82300
C966        C  0.81159490  0.61942815  0.66241855     0.97100
O967        O  0.83572468  0.63253677  0.64774947    -0.71400
O968        O  0.88257899  0.68175152  0.63657089    -0.75000
Al969      Al  0.87722068  0.63804587  0.66648137     1.49000
C970        C  0.87284567  0.71666039  0.63790231     0.92400
O971        O  0.83586906  0.73377874  0.72231149    -0.81200
O972        O  0.84657006  0.67477317  0.76562366    -0.74700
Al973      Al  0.87631592  0.71387225  0.70663455     1.90100
O974        O  0.80413446  0.68412879  0.71481187    -0.73800
O975        O  0.86129480  0.60600694  0.73995259    -0.73700
O976        O  0.81262568  0.61435223  0.69340162    -0.79300
O977        O  0.87515438  0.58829744  0.68993787    -0.77500
O978        O  0.86258774  0.66602864  0.69979443    -1.13700
O979        O  0.91977740  0.64152559  0.68165949    -0.72800
C980        C  0.93448744  0.67251525  0.68786650     0.97900
C981        C  0.80817783  0.71926723  0.72147977     0.94300
Al982      Al  0.83368102  0.64609242  0.72641745     1.55600
O983        O  0.86360667  0.73084294  0.66475521    -0.77500
C984        C  0.87231840  0.58078008  0.72058957     0.98400
C985        C  0.87065979  0.69555987  0.77192269     0.93300
O986        O  0.89054097  0.70225027  0.74957448    -0.82800
O987        O  0.11644794  0.70179547  0.74816260    -0.82300
C988        C  0.19448541  0.61484873  0.66262749     0.97100
O989        O  0.19384455  0.61070814  0.69372712    -0.71400
O990        O  0.20285889  0.68079017  0.71415084    -0.75000
Al991      Al  0.17309290  0.64386925  0.72617113     1.49000
C992        C  0.19905026  0.71606523  0.72056676     0.92400
O993        O  0.14385859  0.72802451  0.66317000    -0.81200
O994        O  0.08708327  0.64050475  0.68072115    -0.74700
Al995      Al  0.13080567  0.71221389  0.70511806     1.90100
O996        O  0.12440558  0.67915476  0.63523029    -0.73800
O997        O  0.13090490  0.58656668  0.69041152    -0.73700
O998        O  0.17046912  0.62871768  0.64786654    -0.79300
O999        O  0.14524032  0.60505840  0.74014303    -0.77500
O1000       O  0.14422589  0.66397108  0.69906079    -1.13700
O1001       O  0.16038428  0.67370479  0.76494232    -0.72800
C1002       C  0.13610777  0.69466637  0.77090179     0.97900
C1003       C  0.13481815  0.71367785  0.63628974     0.94300
Al1004     Al  0.12932900  0.63577306  0.66603361     1.55600
O1005       O  0.17142360  0.73125676  0.72095398    -0.77500
C1006       C  0.13381735  0.57973009  0.72121418     0.98400
C1007       C  0.07237802  0.67173404  0.68630955     0.93300
O1008       O  0.08753212  0.70294615  0.69093376    -0.82800
O1009       O  0.58974605  0.30358628  0.93926006    -0.82300
C1010       C  0.69424269  0.39292318  0.91021556     0.97100
O1011       O  0.67009022  0.37935327  0.89580365    -0.71400
O1012       O  0.62491432  0.32840518  0.88391786    -0.75000
Al1013     Al  0.62940823  0.37181986  0.91456249     1.49000
C1014       C  0.63627246  0.29414099  0.88460045     0.92400
O1015       O  0.67438869  0.27690257  0.96955654    -0.81200
O1016       O  0.66171078  0.33447077  0.51336307    -0.74700
Al1017     Al  0.63330718  0.29525599  0.95336979     1.90100
O1018       O  0.70473866  0.32773992  0.96277048    -0.73800
O1019       O  0.64547658  0.40287521  0.98814638    -0.73700
O1020       O  0.69396806  0.39728772  0.94133270    -0.79300
O1021       O  0.63028175  0.42124362  0.93863562    -0.77500
O1022       O  0.64545471  0.34378206  0.94738164    -1.13700
O1023       O  0.58747133  0.36627094  0.93002527    -0.72800
C1024       C  0.57369312  0.33452030  0.93538547     0.97900
C1025       C  0.70167768  0.29260684  0.96996696     0.94300
Al1026     Al  0.67400050  0.36433284  0.97433101     1.55600
O1027       O  0.64667558  0.28007514  0.91121531    -0.77500
C1028       C  0.63323042  0.42801534  0.96940988     0.98400
C1029       C  0.63801777  0.31274519  0.51912820     0.93300
O1030       O  0.61866771  0.30530906  0.49628155    -0.82800
O1031       O  0.39307362  0.30239703  0.49800246    -0.82300
C1032       C  0.31272827  0.38779477  0.91279458     0.97100
O1033       O  0.31371478  0.39181522  0.94389709    -0.71400
O1034       O  0.30589250  0.32161287  0.96473135    -0.75000
Al1035     Al  0.33541878  0.35929634  0.97630717     1.49000
C1036       C  0.31030600  0.28643514  0.97133577     0.92400
O1037       O  0.36463981  0.27556662  0.91335618    -0.81200
O1038       O  0.42074974  0.36406127  0.93044575    -0.74700
Al1039     Al  0.37817996  0.29160988  0.95517818     1.90100
O1040       O  0.38334958  0.32476068  0.88529800    -0.73800
O1041       O  0.37636250  0.41738352  0.94001624    -0.73700
O1042       O  0.33669721  0.37445969  0.89785301    -0.79300
O1043       O  0.36297085  0.39886366  0.98990820    -0.77500
O1044       O  0.36409814  0.33965724  0.94907577    -1.13700
O1045       O  0.34914366  0.32984515  0.51499814    -0.72800
C1046       C  0.37348010  0.30880173  0.52072747     0.97900
C1047       C  0.37347491  0.29002545  0.88649357     0.94300
Al1048     Al  0.37822285  0.36809857  0.91589868     1.55600
O1049       O  0.33810021  0.27174824  0.97152010    -0.77500
C1050       C  0.37381185  0.42433180  0.97078284     0.98400
C1051       C  0.43586060  0.33299265  0.93583839     0.93300
O1052       O  0.42110220  0.30156524  0.94063807    -0.82800
O1053       O  0.41961022  0.20104712  0.69108296    -0.82300
C1054       C  0.31475849  0.11206683  0.66157466     0.97100
O1055       O  0.33919553  0.12485036  0.64730048    -0.71400
O1056       O  0.38488019  0.17536917  0.63545411    -0.75000
Al1057     Al  0.37992823  0.13247585  0.66673420     1.49000
C1058       C  0.37331551  0.20953383  0.63569811     0.92400
O1059       O  0.33473412  0.22853540  0.71902273    -0.81200
O1060       O  0.34666853  0.17158710  0.76423711    -0.74700
Al1061     Al  0.37588022  0.20965257  0.70432767     1.90100
O1062       O  0.30409806  0.17790592  0.71268828    -0.73800
O1063       O  0.36280290  0.10270915  0.74046978    -0.73700
O1064       O  0.31497375  0.10790507  0.69268777    -0.79300
O1065       O  0.37861266  0.08348165  0.69159396    -0.77500
O1066       O  0.36365558  0.16112225  0.69884428    -1.13700
O1067       O  0.42193841  0.13824921  0.68287954    -0.72800
C1068       C  0.43578411  0.17017820  0.68758092     0.97900
C1069       C  0.30726250  0.21336153  0.71863837     0.94300
Al1070     Al  0.33465347  0.14127999  0.72546807     1.55600
O1071       O  0.36287089  0.22391323  0.66196390    -0.77500
C1072       C  0.37492737  0.07702147  0.72232101     0.98400
C1073       C  0.37050373  0.19298286  0.77029584     0.93300
O1074       O  0.38996446  0.20044510  0.74769459    -0.82800
O1075       O  0.61840945  0.20305716  0.74563989    -0.82300
C1076       C  0.69657895  0.11594090  0.66127182     0.97100
O1077       O  0.69566689  0.11107355  0.69229363    -0.71400
O1078       O  0.70494645  0.18093775  0.71284814    -0.75000
Al1079     Al  0.67481402  0.14411189  0.72461746     1.49000
C1080       C  0.70112740  0.21622935  0.71916924     0.92400
O1081       O  0.64646287  0.22737559  0.66052476    -0.81200
O1082       O  0.58889586  0.14054068  0.67933006    -0.74700
Al1083     Al  0.63293951  0.21251670  0.70259711     1.90100
O1084       O  0.62584967  0.17873939  0.63317931    -0.73800
O1085       O  0.63263477  0.08637177  0.68894865    -0.73700
O1086       O  0.67229245  0.12882056  0.64632612    -0.79300
O1087       O  0.64684508  0.10527556  0.73852912    -0.77500
O1088       O  0.64608997  0.16409679  0.69722858    -1.13700
O1089       O  0.66180492  0.17420127  0.76316950    -0.72800
C1090       C  0.63789171  0.19597790  0.76858484     0.97900
C1091       C  0.63689979  0.21296254  0.63387487     0.94300
Al1092     Al  0.63107137  0.13562072  0.66439143     1.55600
O1093       O  0.67354993  0.23156038  0.71863008    -0.77500
C1094       C  0.63517639  0.07986901  0.71984467     0.98400
C1095       C  0.57415619  0.17186176  0.68459073     0.93300
O1096       O  0.58941252  0.20323987  0.68829674    -0.82800
O1097       O  0.91843732  0.30437864  0.81202682    -0.82300
C1098       C  0.81142915  0.39298719  0.83599918     0.97100
O1099       O  0.83578530  0.38080447  0.85126035    -0.71400
O1100       O  0.88207415  0.33091955  0.86551931    -0.75000
Al1101     Al  0.87702251  0.37306539  0.83330040     1.49000
C1102       C  0.87074822  0.29680064  0.86554356     0.92400
O1103       O  0.83512375  0.27486110  0.78075153    -0.81200
O1104       O  0.84706954  0.33115351  0.73561047    -0.74700
Al1105     Al  0.87527527  0.29482783  0.79712823     1.90100
O1106       O  0.80342340  0.32518164  0.78583479    -0.73800
O1107       O  0.86059180  0.40110456  0.75850839    -0.73700
O1108       O  0.81194084  0.39577780  0.80478604    -0.79300
O1109       O  0.87522556  0.42136655  0.80754493    -0.77500
O1110       O  0.86203724  0.34342130  0.80119310    -1.13700
O1111       O  0.91949537  0.36746885  0.81858663    -0.72800
C1112       C  0.93400041  0.33559971  0.81487816     0.97900
C1113       C  0.80745821  0.28983007  0.77997701     0.94300
Al1114     Al  0.83323642  0.36210883  0.77330951     1.55600
O1115       O  0.86103200  0.28163850  0.83925137    -0.77500
C1116       C  0.87178600  0.42731049  0.77666573     0.98400
C1117       C  0.87135808  0.30971810  0.73081181     0.93300
O1118       O  0.89045508  0.30304504  0.75417575    -0.82800
O1119       O  0.11628543  0.30653010  0.75070019    -0.82300
C1120       C  0.19515642  0.38973187  0.83773561     0.97100
O1121       O  0.19479690  0.39431198  0.80663685    -0.71400
O1122       O  0.20320082  0.32467216  0.78450090    -0.75000
Al1123     Al  0.17351407  0.36277160  0.77332808     1.49000
C1124       C  0.19928609  0.28999137  0.77621832     0.92400
O1125       O  0.14510189  0.27839523  0.83520776    -0.81200
O1126       O  0.08727755  0.36687732  0.81809196    -0.74700
Al1127     Al  0.13123744  0.29488139  0.79344853     1.90100
O1128       O  0.12487066  0.32689962  0.86337032    -0.73800
O1129       O  0.13137490  0.42045241  0.80970149    -0.73700
O1130       O  0.17082285  0.37670747  0.85196353    -0.79300
O1131       O  0.14602270  0.40275627  0.75998094    -0.77500
O1132       O  0.14466912  0.34283325  0.80002200    -1.13700
O1133       O  0.16004003  0.33414753  0.73399637    -0.72800
C1134       C  0.13593581  0.31308281  0.72805882     0.97900
C1135       C  0.13592356  0.29252000  0.86213003     0.94300
Al1136     Al  0.12972110  0.37073978  0.83324828     1.55600
O1137       O  0.17164035  0.27524048  0.77656939    -0.77500
C1138       C  0.13444888  0.42784652  0.77907176     0.98400
C1139       C  0.07256907  0.33566603  0.81304780     0.93300
O1140       O  0.08796390  0.30439099  0.80830205    -0.82800
O1141       O  0.09076474  0.20362399  0.55825692    -0.82300
C1142       C  0.19688953  0.11417509  0.58704506     0.97100
O1143       O  0.17280210  0.12764048  0.60174879    -0.71400
O1144       O  0.12675876  0.17867598  0.61397275    -0.75000
Al1145     Al  0.13166570  0.13540427  0.58286904     1.49000
C1146       C  0.13758082  0.21306288  0.61327765     0.92400
O1147       O  0.17505076  0.23096302  0.52917284    -0.81200
O1148       O  0.16363186  0.17429574  0.98466610    -0.74700
Al1149     Al  0.13425321  0.21228356  0.54455659     1.90100
O1150       O  0.20619744  0.18021900  0.53629424    -0.73800
O1151       O  0.14788962  0.10548139  0.50885367    -0.73700
O1152       O  0.19614685  0.11008298  0.55595564    -0.79300
O1153       O  0.13298316  0.08635502  0.55809460    -0.77500
O1154       O  0.14714334  0.16382704  0.55036633    -1.13700
O1155       O  0.08945375  0.14093592  0.56721518    -0.72800
C1156       C  0.07513337  0.17258382  0.56181913     0.97900
C1157       C  0.20257351  0.21549995  0.52972102     0.94300
Al1158     Al  0.17599176  0.14378853  0.52350562     1.55600
O1159       O  0.14743040  0.22726988  0.58671834    -0.77500
C1160       C  0.13603006  0.07996639  0.52725909     0.98400
C1161       C  0.13945745  0.19558104  0.97872524     0.93300
O1162       O  0.11989747  0.20246170  0.00140033    -0.82800
O1163       O  0.89157422  0.20265302  0.00182665    -0.82300
C1164       C  0.81506314  0.11745309  0.58864757     0.97100
O1165       O  0.81543616  0.11288009  0.55759351    -0.71400
O1166       O  0.80565230  0.18284490  0.53683766    -0.75000
Al1167     Al  0.83546330  0.14534720  0.52463627     1.49000
C1168       C  0.80932018  0.21806253  0.53020950     0.92400
O1169       O  0.86543408  0.22837393  0.58723787    -0.81200
O1170       O  0.92253266  0.14038452  0.56776658    -0.74700
Al1171     Al  0.87789303  0.21298229  0.54508151     1.90100
O1172       O  0.88638739  0.17953159  0.61453817    -0.73800
O1173       O  0.87768692  0.08708113  0.56008377    -0.73700
O1174       O  0.83944476  0.13035074  0.60322529    -0.79300
O1175       O  0.86304770  0.10582107  0.51043040    -0.77500
O1176       O  0.86474049  0.16491355  0.55123590    -1.13700
O1177       O  0.84756367  0.17499489  0.98564475    -0.72800
C1178       C  0.87144479  0.19617970  0.97947412     0.97900
C1179       C  0.87523252  0.21386781  0.61385977     0.94300
Al1180     Al  0.88040861  0.13636969  0.58394816     1.55600
O1181       O  0.83696709  0.23280232  0.52984565    -0.77500
C1182       C  0.87385443  0.07997844  0.52948402     0.98400
C1183       C  0.93693296  0.17170669  0.56207057     0.93300
O1184       O  0.92141430  0.20310996  0.55856471    -0.82800
C1185       C  0.98882264  0.20724903  0.56122256    -0.21800
C1186       C  0.97226791  0.17193763  0.56030068    -0.09800
C1187       C  0.98988918  0.13715929  0.55820889     0.29100
C1188       C  0.02319028  0.13782544  0.55833254    -0.21800
C1189       C  0.03978148  0.17304170  0.56026029    -0.09800
C1190       C  0.02219357  0.20791798  0.56116839     0.29100
F1191       F  0.03708341  0.24268042  0.06284721    -0.20300
H1192       H  0.97594162  0.23446777  0.56260928     0.17400
H1193       H  0.03601861  0.11054934  0.55697197     0.17400
F1194       F  0.97508447  0.10237950  0.55588802    -0.20300
C1195       C  0.15674834  0.29545863  0.67217325    -0.21800
C1196       C  0.13370318  0.29057460  0.69682282    -0.09800
C1197       C  0.11205816  0.25946810  0.69376984     0.29100
C1198       C  0.11410877  0.23363884  0.66721501    -0.21800
C1199       C  0.13732328  0.23840348  0.64283568    -0.09800
C1200       C  0.15849110  0.26992425  0.64541637     0.29100
F1201       F  0.18147999  0.27561323  0.62246052    -0.20300
H1202       H  0.17409229  0.31850251  0.67402748     0.17400
H1203       H  0.09718186  0.21014396  0.66548975     0.17400
F1204       F  0.08945143  0.25301745  0.71696329    -0.20300
C1205       C  0.15982986  0.21326784  0.92263517    -0.21800
C1206       C  0.13636775  0.21716473  0.94706698    -0.09800
C1207       C  0.11270060  0.24620799  0.94304857     0.29100
C1208       C  0.11324301  0.27119654  0.91587641    -0.21800
C1209       C  0.13685122  0.26748503  0.89177235    -0.09800
C1210       C  0.15998194  0.23789379  0.89514436     0.29100
F1211       F  0.18335814  0.23349418  0.87235879    -0.20300
H1212       H  0.17864450  0.19179496  0.92520875     0.17400
H1213       H  0.09485268  0.29323491  0.91345744     0.17400
F1214       F  0.08940330  0.25139427  0.96578858    -0.20300
C1215       C  0.89631105  0.23209407  0.66952485    -0.21800
C1216       C  0.87450479  0.23842997  0.64376365    -0.09800
C1217       C  0.85311151  0.27004119  0.64590681     0.29100
C1218       C  0.85333228  0.29428802  0.67349151    -0.21800
C1219       C  0.87495811  0.28789797  0.69947670    -0.09800
C1220       C  0.89676079  0.25657635  0.69703034     0.29100
F1221       F  0.91789320  0.24860397  0.72163319    -0.20300
H1222       H  0.91325236  0.20829329  0.66826499     0.17400
H1223       H  0.83591886  0.31755026  0.67485441     0.17400
F1224       F  0.83127849  0.27698201  0.62173045    -0.20300
C1225       C  0.89736347  0.27059034  0.91604625    -0.21800
C1226       C  0.87041293  0.27259997  0.89557167    -0.09800
C1227       C  0.84486774  0.24726399  0.90137907     0.29100
C1228       C  0.84614598  0.22084987  0.92754946    -0.21800
C1229       C  0.87303455  0.21880579  0.94832176    -0.09800
C1230       C  0.89888503  0.24380155  0.94200528     0.29100
F1231       F  0.92556229  0.24278542  0.96109905    -0.20300
H1232       H  0.91764298  0.28906299  0.91136518     0.17400
H1233       H  0.82558154  0.20281607  0.93214175     0.17400
F1234       F  0.81834157  0.24858303  0.88204789    -0.20300
C1235       C  0.98632106  0.36938464  0.82030406    -0.21800
C1236       C  0.96944690  0.33501080  0.81434380    -0.09800
C1237       C  0.98684863  0.30081132  0.80780604     0.29100
C1238       C  0.02025157  0.30126908  0.80731797    -0.21800
C1239       C  0.03709772  0.33567919  0.81333452    -0.09800
C1240       C  0.01962571  0.36985726  0.81986578     0.29100
F1241       F  0.03453424  0.40393409  0.82599472    -0.20300
H1242       H  0.97372877  0.39617550  0.82545045     0.17400
H1243       H  0.03293163  0.27455296  0.80219421     0.17400
F1244       F  0.97174606  0.26687997  0.80166987    -0.20300
C1245       C  0.75610571  0.10683915  0.65946145    -0.21800
C1246       C  0.72670238  0.10909506  0.64263608    -0.09800
C1247       C  0.72697059  0.10975444  0.60783416     0.29100
C1248       C  0.75583530  0.10990218  0.59060483    -0.21800
C1249       C  0.78522060  0.11006534  0.60743025    -0.09800
C1250       C  0.78505261  0.10760027  0.64217332     0.29100
F1251       F  0.81278960  0.10719195  0.65957613    -0.20300
H1252       H  0.75678387  0.10652790  0.68618909     0.17400
H1253       H  0.75508551  0.11204492  0.56394498     0.17400
F1254       F  0.69936646  0.11192257  0.59028280    -0.20300
C1255       C  0.78540257  0.24042326  0.74252775    -0.21800
C1256       C  0.78025250  0.26818147  0.76717981    -0.09800
C1257       C  0.74897517  0.28025478  0.77448324     0.29100
C1258       C  0.72332814  0.26498340  0.75704857    -0.21800
C1259       C  0.72846422  0.23736500  0.73229404    -0.09800
C1260       C  0.75973602  0.22509290  0.72511690     0.29100
F1261       F  0.76547345  0.19838593  0.70123679    -0.20300
H1262       H  0.80939317  0.23172336  0.73581603     0.17400
H1263       H  0.69934953  0.27371761  0.76375921     0.17400
F1264       F  0.74322795  0.30686897  0.79842973    -0.20300
C1265       C  0.48848566  0.13688494  0.68245025    -0.21800
C1266       C  0.47119242  0.17123914  0.68798825    -0.09800
C1267       C  0.48814856  0.20589432  0.69314281     0.29100
C1268       C  0.52155945  0.20595830  0.69209635    -0.21800
C1269       C  0.53876334  0.17159781  0.68603398    -0.09800
C1270       C  0.52172132  0.13689223  0.68149888     0.29100
F1271       F  0.53698190  0.10271269  0.67594503    -0.20300
H1272       H  0.47626910  0.10970442  0.67855782     0.17400
H1273       H  0.53395865  0.23302301  0.69596888     0.17400
F1274       F  0.47261248  0.23978131  0.69909427    -0.20300
C1275       C  0.25559750  0.10176461  0.65835688    -0.21800
C1276       C  0.28507946  0.10464821  0.64212734    -0.09800
C1277       C  0.28508168  0.10548924  0.60730447     0.29100
C1278       C  0.25628852  0.10579500  0.58953839    -0.21800
C1279       C  0.22678634  0.10574852  0.60590012    -0.09800
C1280       C  0.22679638  0.10251434  0.64058440     0.29100
F1281       F  0.19897002  0.10155490  0.65752304    -0.20300
H1282       H  0.25468173  0.10108306  0.68505260     0.17400
H1283       H  0.25714295  0.10837279  0.56290993     0.17400
F1284       F  0.31281984  0.10780900  0.59030553    -0.20300
C1285       C  0.25660030  0.28758242  0.76175080    -0.21800
C1286       C  0.22674564  0.26916651  0.76211871    -0.09800
C1287       C  0.22297690  0.23409330  0.74503682     0.29100
C1288       C  0.24895555  0.21730943  0.72901141    -0.21800
C1289       C  0.27903015  0.23524982  0.72955329    -0.09800
C1290       C  0.28239933  0.27109823  0.74542702     0.29100
F1291       F  0.31079986  0.28975620  0.74622996    -0.20300
H1292       H  0.26006389  0.31514802  0.77393746     0.17400
H1293       H  0.24565988  0.18969256  0.71683099     0.17400
F1294       F  0.19428999  0.21614791  0.74344820    -0.20300
C1295       C  0.35148647  0.23402827  0.85489900    -0.21800
C1296       C  0.37319230  0.26491275  0.85692086    -0.09800
C1297       C  0.39575826  0.26943180  0.83180281     0.29100
C1298       C  0.39595973  0.24419539  0.80483670    -0.21800
C1299       C  0.37345760  0.21414666  0.80205445    -0.09800
C1300       C  0.35138378  0.20904378  0.82770369     0.29100
F1301       F  0.32920442  0.18060437  0.82625730    -0.20300
H1302       H  0.33413640  0.22958924  0.87423668     0.17400
H1303       H  0.41324131  0.24908221  0.78553562     0.17400
F1304       F  0.41800021  0.29777786  0.83353665    -0.20300
C1305       C  0.35252162  0.29063652  0.57612651    -0.21800
C1306       C  0.37611611  0.28640190  0.55193918    -0.09800
C1307       C  0.39872239  0.25604119  0.55543588     0.29100
C1308       C  0.39708138  0.23028070  0.58208384    -0.21800
C1309       C  0.37327952  0.23444270  0.60597258    -0.09800
C1310       C  0.35110054  0.26513948  0.60285777     0.29100
F1311       F  0.32746341  0.27003761  0.62528399    -0.20300
H1312       H  0.33444829  0.31307782  0.57388427     0.17400
H1313       H  0.41475579  0.20736501  0.58429115     0.17400
F1314       F  0.42191359  0.25033644  0.53266325    -0.20300
C1315       C  0.28740647  0.24083021  0.51136900    -0.21800
C1316       C  0.28316110  0.26482007  0.98374170    -0.09800
C1317       C  0.25224983  0.27418257  0.97273050     0.29100
C1318       C  0.22592316  0.26009087  0.98949188    -0.21800
C1319       C  0.23010368  0.23627585  0.51719632    -0.09800
C1320       C  0.26102340  0.22652775  0.52805112     0.29100
F1321       F  0.26562976  0.20338311  0.55480853    -0.20300
H1322       H  0.31110817  0.23447888  0.52083209     0.17400
H1323       H  0.20225440  0.26652268  0.98001993     0.17400
F1324       F  0.24758847  0.29701632  0.94579624    -0.20300
C1325       C  0.25423161  0.40127207  0.84145243    -0.21800
C1326       C  0.22472606  0.39720860  0.85741282    -0.09800
C1327       C  0.22455862  0.39556500  0.89225185     0.29100
C1328       C  0.25324297  0.39527821  0.91021177    -0.21800
C1329       C  0.28279693  0.39631883  0.89403959    -0.09800
C1330       C  0.28292783  0.40072847  0.85943827     0.29100
F1331       F  0.31084384  0.40313321  0.84277375    -0.20300
H1332       H  0.25527249  0.40282594  0.81479130     0.17400
H1333       H  0.25229736  0.39194870  0.93677960     0.17400
F1334       F  0.19677220  0.39245029  0.90907053    -0.20300
C1335       C  0.72478117  0.24187200  0.50614396    -0.21800
C1336       C  0.72949406  0.27207487  0.98358032    -0.09800
C1337       C  0.76046928  0.28653507  0.97873360     0.29100
C1338       C  0.78621282  0.27047910  0.99584272    -0.21800
C1339       C  0.78155633  0.23986423  0.51800733    -0.09800
C1340       C  0.75050237  0.22593724  0.52335803     0.29100
F1341       F  0.74498874  0.19668695  0.54500669    -0.20300
H1342       H  0.70102726  0.23128657  0.51120391     0.17400
H1343       H  0.80996903  0.28104274  0.99075144     0.17400
F1344       F  0.76595415  0.31607628  0.95736637    -0.20300
C1345       C  0.75309061  0.40543849  0.90696110    -0.21800
C1346       C  0.72359061  0.40117127  0.89076959    -0.09800
C1347       C  0.72330885  0.39982683  0.85593683     0.29100
C1348       C  0.75192834  0.40008486  0.83817623    -0.21800
C1349       C  0.78152971  0.40132055  0.85455792    -0.09800
C1350       C  0.78172703  0.40537102  0.88918894     0.29100
F1351       F  0.80965177  0.40767860  0.90611841    -0.20300
H1352       H  0.75419985  0.40665847  0.93364171     0.17400
H1353       H  0.75090511  0.39694853  0.81159836     0.17400
F1354       F  0.69549897  0.39638392  0.83893459    -0.20300
C1355       C  0.61651829  0.25240572  0.80020523    -0.21800
C1356       C  0.63521180  0.21829490  0.79978728    -0.09800
C1357       C  0.65429341  0.20962847  0.82744930     0.29100
C1358       C  0.65462028  0.23460056  0.85466855    -0.21800
C1359       C  0.63638752  0.26908853  0.85478989    -0.09800
C1360       C  0.61723537  0.27767332  0.82717171     0.29100
F1361       F  0.59900773  0.31030587  0.82616914    -0.20300
H1362       H  0.60202755  0.26038513  0.77904977     0.17400
H1363       H  0.66950846  0.22703916  0.87563841     0.17400
F1364       F  0.67291790  0.17731650  0.82813675    -0.20300
C1365       C  0.66149926  0.29034242  0.57277523    -0.21800
C1366       C  0.63563516  0.29078611  0.55061802    -0.09800
C1367       C  0.61019716  0.26485776  0.55610348     0.29100
C1368       C  0.61132477  0.23849538  0.58240653    -0.21800
C1369       C  0.63737389  0.23786593  0.60415636    -0.09800
C1370       C  0.66232859  0.26439601  0.59934031     0.29100
F1371       F  0.68801014  0.26451422  0.61986921    -0.20300
H1372       H  0.68170415  0.30921474  0.56894140     0.17400
H1373       H  0.59146477  0.21907925  0.58620430     0.17400
F1374       F  0.58438592  0.26438059  0.53576242    -0.20300
C1375       C  0.52109501  0.36470130  0.92235886    -0.21800
C1376       C  0.53846575  0.33373160  0.93618780    -0.09800
C1377       C  0.52181351  0.30269857  0.95048157     0.29100
C1378       C  0.48844212  0.30254654  0.95024576    -0.21800
C1379       C  0.47112046  0.33340102  0.93606973    -0.09800
C1380       C  0.48786361  0.36466397  0.92224351     0.29100
F1381       F  0.47225748  0.39495748  0.40793126    -0.20300
H1382       H  0.53326300  0.38894115  0.91114704     0.17400
H1383       H  0.47613851  0.27842944  0.96149430     0.17400
F1384       F  0.53766105  0.27291428  0.96526074    -0.20300
C1385       C  0.12564450  0.53676788  0.77018555    -0.21800
C1386       C  0.12661428  0.54115435  0.73558390    -0.09800
C1387       C  0.12498368  0.50783415  0.71580402     0.29100
C1388       C  0.12520870  0.47107647  0.73041551    -0.21800
C1389       C  0.12698234  0.46664242  0.76497908    -0.09800
C1390       C  0.12579371  0.49997581  0.78480722     0.29100
F1391       F  0.12723532  0.49725717  0.81819800    -0.20300
H1392       H  0.12646890  0.56194026  0.78611649     0.17400
H1393       H  0.12566730  0.44592186  0.71446601     0.17400
F1394       F  0.12562296  0.51048990  0.68239549    -0.20300
C1395       C  0.88377675  0.49829842  0.78163594    -0.21800
C1396       C  0.87829400  0.46586567  0.76157191    -0.09800
C1397       C  0.87564012  0.47153174  0.72706006     0.29100
C1398       C  0.87613691  0.50889987  0.71355326    -0.21800
C1399       C  0.87903588  0.54145195  0.73397031    -0.09800
C1400       C  0.88408698  0.53568294  0.76809458     0.29100
F1401       F  0.88812750  0.56631689  0.78865302    -0.20300
H1402       H  0.88624022  0.49497915  0.80809858     0.17400
H1403       H  0.87225956  0.51243847  0.68726397     0.17400
F1404       F  0.87097070  0.44120851  0.70630408    -0.20300
C1405       C  0.98648159  0.64045370  0.67553474    -0.21800
C1406       C  0.96976749  0.67233527  0.68845747    -0.09800
C1407       C  0.98713316  0.70378695  0.70128922     0.29100
C1408       C  0.02046004  0.70344262  0.70045740    -0.21800
C1409       C  0.03712173  0.67173399  0.68711830    -0.09800
C1410       C  0.01972525  0.64002937  0.67481621     0.29100
F1411       F  0.03467801  0.60880937  0.66144122    -0.20300
H1412       H  0.97379538  0.61587517  0.66546747     0.17400
H1413       H  0.03324847  0.72794891  0.71052252     0.17400
F1414       F  0.97205557  0.73469623  0.71501741    -0.20300
C1415       C  0.87597171  0.97064957  0.52126196    -0.21800
C1416       C  0.87599960  0.96609643  0.98667564    -0.09800
C1417       C  0.87964275  0.99914214  0.96680249     0.29100
C1418       C  0.88115849  0.03591610  0.98121877    -0.21800
C1419       C  0.87909886  0.04064995  0.51567405    -0.09800
C1420       C  0.87749660  0.00743825  0.53567689     0.29100
F1421       F  0.87499769  0.01049129  0.56896295    -0.20300
H1422       H  0.87333867  0.94573691  0.53728942     0.17400
H1423       H  0.88246732  0.06097377  0.96518975     0.17400
F1424       F  0.87964076  0.99634600  0.93340108    -0.20300
C1425       C  0.89378365  0.74940869  0.80524333    -0.21800
C1426       C  0.87289097  0.71760892  0.80324017    -0.09800
C1427       C  0.85107712  0.71170064  0.82896448     0.29100
C1428       C  0.85011372  0.73721474  0.85571104    -0.21800
C1429       C  0.87046834  0.76946304  0.85725786    -0.09800
C1430       C  0.89246289  0.77525262  0.83176680     0.29100
F1431       F  0.91301696  0.80547248  0.83264695    -0.20300
H1432       H  0.91055145  0.75518674  0.78562315     0.17400
H1433       H  0.83306442  0.73192454  0.87518222     0.17400
F1434       F  0.83021788  0.68179651  0.82806609    -0.20300
C1435       C  0.89102246  0.75709654  0.55308659    -0.21800
C1436       C  0.87282067  0.79156657  0.55273522    -0.09800
C1437       C  0.85556546  0.80179449  0.58103959     0.29100
C1438       C  0.85587556  0.77736715  0.60863915    -0.21800
C1439       C  0.87300047  0.74204850  0.60839793    -0.09800
C1440       C  0.89100325  0.73247009  0.58042914     0.29100
F1441       F  0.90859195  0.69933714  0.57935316    -0.20300
H1442       H  0.90435381  0.74818878  0.53153518     0.17400
H1443       H  0.84217352  0.78584511  0.63007049     0.17400
F1444       F  0.83810458  0.83503308  0.58192648    -0.20300
C1445       C  0.12101823  0.97204676  0.01683459    -0.21800
C1446       C  0.12678621  0.96719858  0.98284224    -0.09800
C1447       C  0.13077906  0.00032944  0.96319480     0.29100
C1448       C  0.13155384  0.03706160  0.47773308    -0.21800
C1449       C  0.12835867  0.04175980  0.51215382    -0.09800
C1450       C  0.12153736  0.00891595  0.53138395     0.29100
F1451       F  0.11719793  0.01197718  0.56444338    -0.20300
H1452       H  0.11745540  0.94699817  0.03248216     0.17400
H1453       H  0.13639762  0.06174581  0.46204318     0.17400
F1454       F  0.13666388  0.99714790  0.93039361    -0.20300
C1455       C  0.10647576  0.76529655  0.83588911    -0.21800
C1456       C  0.13343147  0.76845212  0.85622509    -0.09800
C1457       C  0.16008321  0.74464043  0.85009392     0.29100
C1458       C  0.16004423  0.71890510  0.82346378    -0.21800
C1459       C  0.13331178  0.71603831  0.80257493    -0.09800
C1460       C  0.10619645  0.73913141  0.80947494     0.29100
F1461       F  0.07953365  0.73692905  0.79045594    -0.20300
H1462       H  0.08538518  0.78260347  0.84085796     0.17400
H1463       H  0.18148605  0.70228095  0.81848403     0.17400
F1464       F  0.18660159  0.74719619  0.86930661    -0.20300
C1465       C  0.15418017  0.79598773  0.57730960    -0.21800
C1466       C  0.13244959  0.78950023  0.55147072    -0.09800
C1467       C  0.11180068  0.75733832  0.55373444     0.29100
C1468       C  0.11335504  0.73226910  0.58084647    -0.21800
C1469       C  0.13507662  0.73875728  0.60655712    -0.09800
C1470       C  0.15540202  0.77115511  0.60465541     0.29100
F1471       F  0.17705389  0.77839549  0.62885866    -0.20300
H1472       H  0.17078641  0.81987560  0.57604951     0.17400
H1473       H  0.09720994  0.70791578  0.58189114     0.17400
F1474       F  0.09073621  0.74906221  0.52924335    -0.20300
C1475       C  0.01850771  0.80350068  0.94712432    -0.21800
C1476       C  0.03506955  0.83696020  0.93748540    -0.09800
C1477       C  0.01733970  0.87038951  0.92902151     0.29100
C1478       C  0.98402091  0.86988751  0.92954905    -0.21800
C1479       C  0.96743711  0.83624471  0.93855476    -0.09800
C1480       C  0.98511698  0.80306881  0.94778182     0.29100
F1481       F  0.97029386  0.77018982  0.45762345    -0.20300
H1482       H  0.03140585  0.77750565  0.95421034     0.17400
H1483       H  0.97118171  0.89593662  0.92247273     0.17400
F1484       F  0.03201424  0.90358968  0.91973292    -0.20300
C1485       C  0.38297230  0.46757640  0.51940349    -0.21800
C1486       C  0.38081172  0.46314835  0.98487379    -0.09800
C1487       C  0.38111076  0.49654175  0.96501767     0.29100
C1488       C  0.38055208  0.53332417  0.97958526    -0.21800
C1489       C  0.37988568  0.53770293  0.51418367    -0.09800
C1490       C  0.38263001  0.50436667  0.53397127     0.29100
F1491       F  0.38264806  0.50699432  0.56738566    -0.20300
H1492       H  0.38329972  0.44238014  0.53536563     0.17400
H1493       H  0.37898527  0.55846485  0.96362065     0.17400
F1494       F  0.37948937  0.49385056  0.93163975    -0.20300
C1495       C  0.28198408  0.76290953  0.99203346    -0.21800
C1496       C  0.27720241  0.73423683  0.51597686    -0.09800
C1497       C  0.24605403  0.72190594  0.52303790     0.29100
C1498       C  0.22015446  0.73826268  0.50640269    -0.21800
C1499       C  0.22492685  0.76711599  0.98261035    -0.09800
C1500       C  0.25611033  0.77918166  0.97533891     0.29100
F1501       F  0.26159367  0.80670114  0.95211144    -0.20300
H1502       H  0.30585405  0.77181452  0.98540750     0.17400
H1503       H  0.19628994  0.72940399  0.51305176     0.17400
F1504       F  0.24062547  0.69424856  0.54615834    -0.20300
C1505       C  0.22283647  0.60687473  0.60863209    -0.21800
C1506       C  0.22384492  0.60564445  0.64335836    -0.09800
C1507       C  0.25370852  0.60045390  0.65891932     0.29100
C1508       C  0.28183520  0.60006142  0.64025346    -0.21800
C1509       C  0.28089403  0.60398319  0.60567872    -0.09800
C1510       C  0.25088120  0.60576632  0.58996217     0.29100
F1511       F  0.24854832  0.60941251  0.55668263    -0.20300
H1512       H  0.20029519  0.61051492  0.59581470     0.17400
H1513       H  0.30452609  0.59825702  0.65304536     0.17400
F1514       F  0.25605242  0.59820674  0.69228099    -0.20300
C1515       C  0.62377724  0.50824794  0.53249912    -0.21800
C1516       C  0.62523237  0.54126777  0.51243583    -0.09800
C1517       C  0.62326198  0.53654634  0.97782206     0.29100
C1518       C  0.62329647  0.49946308  0.96378701    -0.21800
C1519       C  0.62519229  0.46641511  0.98387359    -0.09800
C1520       C  0.62372067  0.47119864  0.51848198     0.29100
F1521       F  0.62393906  0.44005454  0.53898624    -0.20300
H1522       H  0.62472405  0.51094418  0.55910361     0.17400
H1523       H  0.62387250  0.49674311  0.93716468     0.17400
F1524       F  0.62290617  0.56773827  0.95735920    -0.20300
C1525       C  0.75536183  0.72520448  0.02390742    -0.21800
C1526       C  0.72455857  0.73798699  0.51525011    -0.09800
C1527       C  0.72063718  0.76561269  0.49008319     0.29100
C1528       C  0.74725124  0.78037032  0.47415345    -0.21800
C1529       C  0.77807002  0.76780527  0.98298857    -0.09800
C1530       C  0.78197122  0.73989585  0.00792898     0.29100
F1531       F  0.81142591  0.72812966  0.01794302    -0.20300
H1532       H  0.75880644  0.70338781  0.04290793     0.17400
H1533       H  0.74381120  0.80217096  0.45515119     0.17400
F1534       F  0.69117284  0.77718087  0.47993037    -0.20300
C1535       C  0.72339476  0.61218672  0.64059003    -0.21800
C1536       C  0.72399748  0.61008732  0.60589527    -0.09800
C1537       C  0.75390156  0.60664007  0.59032393     0.29100
C1538       C  0.78225467  0.60792525  0.60893007    -0.21800
C1539       C  0.78159669  0.61189900  0.64349337    -0.09800
C1540       C  0.75168420  0.61285418  0.65919531     0.29100
F1541       F  0.74959811  0.61707577  0.69241508    -0.20300
H1542       H  0.70090166  0.61489317  0.65341981     0.17400
H1543       H  0.80484432  0.60698749  0.59611582     0.17400
F1544       F  0.75596604  0.60421580  0.55697694    -0.20300
C1545       C  0.48502658  0.63563431  0.56870047    -0.21800
C1546       C  0.46763903  0.67004966  0.56345894    -0.09800
C1547       C  0.48445558  0.70463429  0.55774427     0.29100
C1548       C  0.51782010  0.70445216  0.55709150    -0.21800
C1549       C  0.53517934  0.66997171  0.56222083    -0.09800
C1550       C  0.51830250  0.63545335  0.56817459     0.29100
F1551       F  0.53376513  0.60132370  0.57357993    -0.20300
H1552       H  0.47286590  0.60856821  0.57327911     0.17400
H1553       H  0.53006898  0.73146697  0.55262453     0.17400
F1554       F  0.46882417  0.73871993  0.05276110    -0.20300
C1555       C  0.62586794  0.99907236  0.78286679    -0.21800
C1556       C  0.62455827  0.96628702  0.76255189    -0.09800
C1557       C  0.62126454  0.97172606  0.72813212     0.29100
C1558       C  0.62251207  0.00899270  0.71434970    -0.21800
C1559       C  0.62699346  0.04157059  0.73451784    -0.09800
C1560       C  0.62706980  0.03629045  0.76914930     0.29100
F1561       F  0.62995402  0.06691206  0.78993465    -0.20300
H1562       H  0.62807745  0.99586307  0.80936886     0.17400
H1563       H  0.62172539  0.01207725  0.68775277     0.17400
F1564       F  0.61827200  0.94089445  0.70758618    -0.20300
C1565       C  0.72326568  0.74491452  0.73920923    -0.21800
C1566       C  0.72708473  0.77064274  0.76559575    -0.09800
C1567       C  0.75785127  0.78190509  0.77548478     0.29100
C1568       C  0.78443741  0.76713091  0.75926516    -0.21800
C1569       C  0.78058013  0.74110055  0.73306422    -0.09800
C1570       C  0.74980129  0.73036214  0.72287521     0.29100
F1571       F  0.74543325  0.70566211  0.69720315    -0.20300
H1572       H  0.69970813  0.73721568  0.73042433     0.17400
H1573       H  0.80801635  0.77476387  0.76806594     0.17400
F1574       F  0.76216249  0.80700540  0.80089526    -0.20300
C1575       C  0.75129556  0.90198886  0.84007144    -0.21800
C1576       C  0.72162894  0.89903675  0.85587998    -0.09800
C1577       C  0.72112906  0.89841920  0.89070733     0.29100
C1578       C  0.74962257  0.89844874  0.90893074    -0.21800
C1579       C  0.77934679  0.89868100  0.89305283    -0.09800
C1580       C  0.77983421  0.90162446  0.85832332     0.29100
F1581       F  0.80789775  0.90268741  0.84181137    -0.20300
H1582       H  0.75255851  0.90244820  0.81338117     0.17400
H1583       H  0.74836419  0.89606901  0.93554778     0.17400
F1584       F  0.69316160  0.89604121  0.90729873    -0.20300
C1585       C  0.65762260  0.73964320  0.89520488    -0.21800
C1586       C  0.63373370  0.76807850  0.89132695    -0.09800
C1587       C  0.60872289  0.76955634  0.91419685     0.29100
C1588       C  0.60816324  0.74363316  0.94081999    -0.21800
C1589       C  0.63264110  0.71589559  0.94539543    -0.09800
C1590       C  0.65731590  0.71401342  0.92196668     0.29100
F1591       F  0.68178440  0.68834990  0.92534907    -0.20300
H1592       H  0.67696246  0.73763377  0.87764102     0.17400
H1593       H  0.58892776  0.74609236  0.95844073     0.17400
F1594       F  0.58446356  0.79544373  0.91045596    -0.20300
C1595       C  0.65525848  0.76845425  0.64357074    -0.21800
C1596       C  0.63269857  0.73856053  0.64114644    -0.09800
C1597       C  0.60939966  0.73526610  0.66568704     0.29100
C1598       C  0.60922731  0.76087259  0.69244578    -0.21800
C1599       C  0.63249843  0.79002768  0.69559253    -0.09800
C1600       C  0.65541072  0.79374237  0.67054658     0.29100
F1601       F  0.67854990  0.82098474  0.67245270    -0.20300
H1602       H  0.67324902  0.77185055  0.62471209     0.17400
H1603       H  0.59131595  0.75699505  0.71130838     0.17400
F1604       F  0.58643439  0.70781993  0.66354310    -0.20300
C1605       C  0.37849778  0.03393463  0.77192906    -0.21800
C1606       C  0.38198073  0.03853557  0.73752525    -0.09800
C1607       C  0.38808816  0.00539482  0.71834401     0.29100
C1608       C  0.38747663  0.96848457  0.73287710    -0.21800
C1609       C  0.38125357  0.96386085  0.76680675    -0.09800
C1610       C  0.37815495  0.99713997  0.78645867     0.29100
F1611       F  0.37204785  0.99420597  0.81923044    -0.20300
H1612       H  0.37421390  0.05883419  0.78757844     0.17400
H1613       H  0.39045458  0.94330245  0.71723481     0.17400
F1614       F  0.39266470  0.00829108  0.68530762    -0.20300
C1615       C  0.39700087  0.76318447  0.91433221    -0.21800
C1616       C  0.37040303  0.76522903  0.89333544    -0.09800
C1617       C  0.34432109  0.74081511  0.89927437     0.29100
C1618       C  0.34465727  0.71539173  0.92619018    -0.21800
C1619       C  0.37109445  0.71351477  0.94762089    -0.09800
C1620       C  0.39755210  0.73743908  0.94108199     0.29100
F1621       F  0.42381602  0.73650339  0.96078750    -0.20300
H1622       H  0.41762337  0.78110657  0.90967077     0.17400
H1623       H  0.32363751  0.69821512  0.93093693     0.17400
F1624       F  0.31801272  0.74251849  0.87965077    -0.20300
C1625       C  0.39542040  0.75724018  0.69428094    -0.21800
C1626       C  0.37271881  0.78735195  0.69741954    -0.09800
C1627       C  0.34924648  0.79147500  0.67268219     0.29100
C1628       C  0.34829053  0.76571093  0.64606014    -0.21800
C1629       C  0.37033911  0.73496012  0.64357055    -0.09800
C1630       C  0.39419612  0.73120838  0.66780674     0.29100
F1631       F  0.41670228  0.70288570  0.66564500    -0.20300
H1632       H  0.41367604  0.75298220  0.71293915     0.17400
H1633       H  0.32988339  0.76952989  0.62747794     0.17400
F1634       F  0.32656525  0.81961385  0.67457139    -0.20300
C1635       C  0.48523123  0.86624101  0.81358943    -0.21800
C1636       C  0.46896315  0.83082281  0.81243462    -0.09800
C1637       C  0.48673940  0.79616383  0.81012255     0.29100
C1638       C  0.52007262  0.79724602  0.80925499    -0.21800
C1639       C  0.53626793  0.83275966  0.81071076    -0.09800
C1640       C  0.51838312  0.86735060  0.81273571     0.29100
F1641       F  0.53273754  0.90248995  0.81391888    -0.20300
H1642       H  0.47228568  0.89341298  0.81515053     0.17400
H1643       H  0.53320156  0.77019299  0.80777251     0.17400
F1644       F  0.47210771  0.76120306  0.80910671    -0.20300
C1645       C  0.28378687  0.73956723  0.74165554    -0.21800
C1646       C  0.27933656  0.76819071  0.76568424    -0.09800
C1647       C  0.24838181  0.78142552  0.77301834     0.29100
C1648       C  0.22228964  0.76611885  0.75641816    -0.21800
C1649       C  0.22671420  0.73737049  0.73248520    -0.09800
C1650       C  0.25769993  0.72426573  0.72504070     0.29100
F1651       F  0.26275572  0.69655121  0.70183148    -0.20300
H1652       H  0.30753510  0.73000121  0.73489616     0.17400
H1653       H  0.19855690  0.77566471  0.76322574     0.17400
F1654       F  0.24335532  0.80908335  0.79627263    -0.20300
C1655       C  0.22333524  0.89753127  0.85807292    -0.21800
C1656       C  0.22376000  0.89497018  0.89276376    -0.09800
C1657       C  0.25359605  0.89386085  0.90891868     0.29100
C1658       C  0.28198324  0.89344072  0.89073710    -0.21800
C1659       C  0.28159015  0.89456265  0.85600461    -0.09800
C1660       C  0.25179688  0.89764044  0.83987271     0.29100
F1661       F  0.24993623  0.89852290  0.80643405    -0.20300
H1662       H  0.20082734  0.89826977  0.84486570     0.17400
H1663       H  0.30439015  0.89083189  0.90397092     0.17400
F1664       F  0.25548481  0.89068798  0.94225639    -0.20300
loop_ 
_geom_bond_atom_site_label_1 
_geom_bond_atom_site_label_2 
_geom_bond_distance 
_geom_bond_site_symmetry_2 
_ccdc_geom_bond_type 
O1           C16   1.268       .  A
O1           Al9   1.932       .  S
C2           O12   1.270       .  A
C2            O3   1.262       .  A
C2          C827   1.496       .  S
O3           Al5   1.898       .  S
O4            C6   1.269       .  A
O4           Al5   1.953       .  S
Al5          O13   1.961       .  S
Al5          O15   1.879       .  S
Al5          O14   1.771       .  S
C6           O19   1.256       .  A
C6          C784   1.476       .  S
O7           C17   1.267       .  A
O7           Al9   1.932       .  S
O8           C21   1.269       .  A
O8          Al18   1.950       .  S
Al9          O22   1.885       .  S
Al9          O19   1.877       .  S
Al9          O14   1.771       .  S
O10          C17   1.254       .  A
O10         Al18   1.855       .  S
O11          C20   1.259       .  A
O11         Al18   1.883       .  S
O12         Al18   1.950       .  S
O13          C20   1.274       .  A
O14         Al18   1.768       .  S
O15          C16   1.262       .  A
C16         C804   1.479       .  S
C17         C814   1.457       .  S
C20         C777   1.486       .  S
C21          O22   1.258       .  A
C21         C794   1.489       .  S
O23          C38   1.258       .  A
O23         Al31   1.879       .  S
C24          O34   1.260       .  A
C24          O25   1.271       .  A
C24         C744   1.492       .  S
O25         Al27   1.950       .  S
O26          C28   1.253       .  A
O26         Al27   1.858       .  S
Al27         O35   1.878       .  S
Al27         O37   1.958       .  S
Al27         O36   1.768       .  S
C28          O41   1.268       .  A
C28         C734   1.457       .  S
O29          C39   1.256       .  A
O29         Al31   1.873       .  S
O30          C43   1.261       .  A
O30         Al40   1.876       .  S
Al31         O44   1.934       .  S
Al31         O41   1.936       .  S
Al31         O36   1.770       .  S
O32          C39   1.272       .  A
O32         Al40   1.961       .  S
O33          C42   1.275       .  A
O33         Al40   1.966       .  S
O34         Al40   1.889       .  S
O35          C42   1.258       .  A
O36         Al40   1.768       .  S
O37          C38   1.271       .  A
C38         C767   1.487       .  S
C39         C754   1.480       .  S
C42         C724   1.487       .  S
C43          O44   1.269       .  A
C43         C807   1.479       .  S
O45          C60   1.269       .  A
O45         Al53   1.937       .  S
C46          O56   1.268       .  A
C46          O47   1.261       .  A
C46         C704   1.497       .  S
O47         Al49   1.900       .  S
O48          C50   1.271       .  A
O48         Al49   1.956       .  S
Al49         O57   1.967       .  S
Al49         O59   1.881       .  S
Al49         O58   1.771       .  S
C50          O63   1.256       .  A
C50         C764   1.480       .  S
O51          C61   1.269       .  A
O51         Al53   1.943       .  S
O52          C65   1.268       .  A
O52        Al894   1.949       .  S
Al53         O63   1.870       .  S
Al53        O898   1.888   1_554  S
Al53         O58   1.772       .  S
O54          C61   1.255       .  A
O54         Al62   1.858       .  S
O55          C64   1.258       .  A
O55         Al62   1.870       .  S
O56         Al62   1.946       .  S
O57          C64   1.276       .  A
O58         Al62   1.769       .  S
O59          C60   1.260       .  A
C60         C717   1.485       .  S
C61         C694   1.461       .  S
Al62        O884   1.949   1_554  S
C64         C684   1.486       .  S
C65          O66   1.259       .  A
C65         C757   1.488       .  S
O66        Al885   1.888       .  S
O67          C82   1.258       .  A
O67        Al907   1.884       .  S
C68          O78   1.262       .  A
C68          O69   1.269       .  A
C68         C677   1.492       .  S
O69         Al71   1.943       .  S
O70          C72   1.255       .  A
O70         Al71   1.864       .  S
Al71         O79   1.876       .  S
Al71        O913   1.951   1_554  S
Al71         O80   1.770       .  S
C72          O85   1.268       .  A
C72         C664   1.462       .  S
O73          C83   1.256       .  A
O73         Al75   1.873       .  S
O74          C87   1.263       .  A
O74         Al84   1.887       .  S
Al75         O88   1.931       .  S
Al75         O85   1.936       .  S
Al75        O899   1.884       .  S
Al75         O80   1.770       .  S
O76          C83   1.272       .  A
O76         Al84   1.958       .  S
O77          C86   1.274       .  A
O77         Al84   1.963       .  S
O78         Al84   1.899       .  S
O79          C86   1.259       .  A
O80         Al84   1.773       .  S
O81          C82   1.269       .  A
O81        Al903   1.951       .  S
C82         C787   1.486       .  S
C83         C797   1.482       .  S
C86         C657   1.488       .  S
C87          O88   1.267       .  A
C87         C714   1.484       .  S
O89         C104   1.269       .  A
O89         Al97   1.935       .  S
C90         O100   1.270       .  A
C90          O91   1.263       .  A
C90         C824   1.496       .  S
O91         Al93   1.905       .  S
O92          C94   1.270       .  A
O92         Al93   1.956       .  S
Al93        O101   1.961       .  S
Al93        O103   1.892       .  S
Al93        O102   1.773       .  S
C94         O107   1.255       .  A
C94         C624   1.474       .  S
O95         C105   1.269       .  A
O95         Al97   1.939       .  S
O96         C109   1.270       .  A
O96        Al938   1.957   1_554  S
Al97        O107   1.872       .  S
Al97        O942   1.879       .  S
Al97        O102   1.768       .  S
O98         C105   1.255       .  A
O98        Al106   1.862       .  S
O99         C108   1.260       .  A
O99        Al106   1.882       .  S
O100       Al106   1.946       .  S
O101        C108   1.274       .  A
O102       Al106   1.770       .  S
O103        C104   1.263       .  A
C104        C644   1.487       .  S
C105        C667   1.463       .  S
Al106       O928   1.957       .  S
C108        C614   1.485       .  S
C109        O110   1.256   1_554  A
C109        C634   1.488       .  S
O110       Al929   1.879       .  S
O111        C126   1.256   1_556  A
O111       Al951   1.873       .  S
C112        O122   1.261       .  A
C112        O113   1.269       .  A
C112        C747   1.492       .  S
O113       Al115   1.943       .  S
O114        C116   1.254       .  A
O114       Al115   1.860       .  S
Al115       O123   1.871       .  S
Al115       O957   1.956       .  S
Al115       O124   1.770       .  S
C116        O129   1.268       .  A
C116        C697   1.462       .  S
O117        C127   1.256       .  A
O117       Al119   1.867       .  S
O118        C131   1.262       .  A
O118       Al128   1.891       .  S
Al119       O132   1.933       .  S
Al119       O129   1.941       .  S
Al119       O943   1.873       .  S
Al119       O124   1.770       .  S
O120        C127   1.272       .  A
O120       Al128   1.955       .  S
O121        C130   1.274       .  A
O121       Al128   1.958       .  S
O122       Al128   1.897       .  S
O123        C130   1.258       .  A
O124       Al128   1.770       .  S
O125        C126   1.270       .  A
O125       Al947   1.956   1_554  S
C126        C604   1.480       .  S
C127        C597   1.479       .  S
C130        C584   1.486       .  S
C131        O132   1.268       .  A
C131        C647   1.486       .  S
O133        C148   1.266       .  A
O133       Al141   1.921       .  S
C134        O144   1.268       .  A
C134        O135   1.262       .  A
C134        C707   1.495       .  S
O135       Al137   1.906       .  S
O136        C138   1.271       .  A
O136       Al137   1.949       .  S
Al137       O145   1.964       .  S
Al137       O147   1.889       .  S
Al137       O146   1.770       .  S
C138        O151   1.256       .  A
C138        C607   1.482       .  S
O139        C149   1.268       .  A
O139       Al141   1.936       .  S
O140        C153   1.268       .  A
O140       Al150   1.949       .  S
Al141       O154   1.879       .  S
Al141       O151   1.869       .  S
Al141       O146   1.773       .  S
O142        C149   1.255       .  A
O142       Al150   1.858       .  S
O143        C152   1.260       .  A
O143       Al150   1.878       .  S
O144       Al150   1.943       .  S
O145        C152   1.275       .  A
O146       Al150   1.769       .  S
O147        C148   1.263       .  A
C148        C574   1.480       .  S
C149        C737   1.457       .  S
C152        C567   1.486       .  S
C153        O154   1.256       .  A
C153        C594   1.483       .  S
O155        C170   1.257       .  A
O155       Al163   1.883       .  S
C156        O166   1.260       .  A
C156        O157   1.269       .  A
C156        C674   1.494       .  S
O157       Al159   1.949       .  S
O158        C160   1.254       .  A
O158       Al159   1.856       .  S
Al159       O167   1.872       .  S
Al159       O169   1.954       .  S
Al159       O168   1.769       .  S
C160        O173   1.269       .  A
C160        C817   1.458       .  S
O161        C171   1.255       .  A
O161       Al163   1.870       .  S
O162        C175   1.259       .  A
O162       Al172   1.878       .  S
Al163       O176   1.930       .  S
Al163       O173   1.936       .  S
Al163       O168   1.771       .  S
O164        C171   1.272       .  A
O164       Al172   1.957       .  S
O165        C174   1.275       .  A
O165       Al172   1.964       .  S
O166       Al172   1.893       .  S
O167        C174   1.259       .  A
O168       Al172   1.769       .  S
O169        C170   1.269       .  A
C170        C627   1.486       .  S
C171        C637   1.483       .  S
C174        C554   1.486       .  S
C175        O176   1.268       .  A
C175        C577   1.479       .  S
O177        C192   1.268       .  A
O177       Al185   1.931       .  S
C178        O188   1.270       .  A
C178        O179   1.260       .  A
C178        C514   1.493       .  S
O179       Al181   1.890       .  S
O180        C182   1.272       .  A
O180       Al181   1.956       .  S
Al181       O189   1.966       .  S
Al181       O191   1.881       .  S
Al181       O190   1.771       .  S
C182        O195   1.257       .  A
C182        C527   1.486       .  S
O183        C193   1.269       .  A
O183       Al185   1.943       .  S
O184        C197   1.271       .  A
O184      Al1026   1.960   1_554  S
Al185       O195   1.875       .  S
Al185      O1030   1.879       .  S
Al185       O190   1.770       .  S
O186        C193   1.254       .  A
O186       Al194   1.861       .  S
O187        C196   1.258       .  A
O187       Al194   1.871       .  S
O188       Al194   1.950       .  S
O189        C196   1.275       .  A
O190       Al194   1.769       .  S
O191        C192   1.261       .  A
C192        C544   1.478       .  S
C193        C504   1.466       .  S
Al194      O1016   1.960       .  S
C196        C687   1.487       .  S
C197        O198   1.256   1_554  A
C197        C534   1.487       .  S
O198      Al1017   1.879       .  S
O199        C214   1.256   1_556  A
O199      Al1039   1.880       .  S
C200        O210   1.261       .  A
C200        O201   1.269       .  A
C200        C497   1.492       .  S
O201       Al203   1.945       .  S
O202        C204   1.255       .  A
O202       Al203   1.860       .  S
Al203       O211   1.876       .  S
Al203      O1045   1.950       .  S
Al203       O212   1.768       .  S
C204        O217   1.268       .  A
C204        C484   1.456       .  S
O205        C215   1.255       .  A
O205       Al207   1.870       .  S
O206        C219   1.260       .  A
O206       Al216   1.880       .  S
Al207       O220   1.929       .  S
Al207       O217   1.938       .  S
Al207      O1031   1.880       .  S
Al207       O212   1.773       .  S
O208        C215   1.271       .  A
O208       Al216   1.955       .  S
O209        C218   1.275       .  A
O209       Al216   1.964       .  S
O210       Al216   1.897       .  S
O211        C218   1.260       .  A
O212       Al216   1.770       .  S
O213        C214   1.269       .  A
O213      Al1035   1.950   1_554  S
C214        C474   1.485       .  S
C215        C464   1.480       .  S
C218        C654   1.487       .  S
C219        O220   1.267       .  A
C219        C547   1.479       .  S
O221        C236   1.268       .  A
O221       Al229   1.934       .  S
C222        O232   1.269       .  A
C222        O223   1.261       .  A
C222        C444   1.494       .  S
O223       Al225   1.898       .  S
O224        C226   1.272       .  A
O224       Al225   1.960       .  S
Al225       O233   1.968       .  S
Al225       O235   1.888       .  S
Al225       O234   1.772       .  S
C226        O239   1.255       .  A
C226        C477   1.479       .  S
O227        C237   1.269       .  A
O227       Al229   1.937       .  S
O228        C241   1.270       .  A
O228       Al238   1.954       .  S
Al229       O242   1.877       .  S
Al229       O239   1.864       .  S
Al229       O234   1.768       .  S
O230        C237   1.255       .  A
O230       Al238   1.865       .  S
O231        C240   1.259       .  A
O231       Al238   1.872       .  S
O232       Al238   1.943       .  S
O233        C240   1.275       .  A
O234       Al238   1.770       .  S
O235        C236   1.263       .  A
C236        C434   1.486       .  S
C237        C457   1.470       .  S
C240        C774   1.491       .  S
C241        O242   1.257       .  A
C241        C467   1.485       .  S
O243        C258   1.258       .  A
O243       Al251   1.879       .  S
C244        O254   1.261       .  A
C244        O245   1.269       .  A
C244        C414   1.493       .  S
O245       Al247   1.945       .  S
O246        C248   1.254       .  A
O246       Al247   1.861       .  S
Al247       O255   1.875       .  S
Al247       O257   1.955       .  S
Al247       O256   1.770       .  S
C248        O261   1.269       .  A
C248        C427   1.461       .  S
O249        C259   1.255       .  A
O249       Al251   1.871       .  S
O250        C263   1.260       .  A
O250       Al260   1.879       .  S
Al251       O264   1.941       .  S
Al251       O261   1.939       .  S
Al251       O256   1.770       .  S
O252        C259   1.272       .  A
O252       Al260   1.962       .  S
O253        C262   1.276       .  A
O253       Al260   1.969       .  S
O254       Al260   1.894       .  S
O255        C262   1.259       .  A
O256       Al260   1.771       .  S
O257        C258   1.269       .  A
C258        C524   1.486       .  S
C259        C537   1.479       .  S
C262        C727   1.491       .  S
C263        O264   1.270       .  A
C263        C437   1.486       .  S
O265        C280   1.268       .  A
O265       Al273   1.936       .  S
C266        O276   1.269       .  A
C266        O267   1.261       .  A
C266        C517   1.492       .  S
O267       Al269   1.897       .  S
O268        C270   1.272       .  A
O268       Al269   1.963       .  S
Al269       O277   1.966       .  S
Al269       O279   1.890       .  S
Al269       O278   1.771       .  S
C270        O283   1.255       .  A
C270        C394   1.475       .  S
O271        C281   1.267       .  A
O271       Al273   1.938       .  S
O272        C285   1.271       .  A
O272       Al282   1.953       .  S
Al273       O286   1.878       .  S
Al273       O283   1.868       .  S
Al273       O278   1.771       .  S
O274        C281   1.254       .  A
O274       Al282   1.863       .  S
O275        C284   1.258       .  A
O275       Al282   1.874       .  S
O276       Al282   1.943       .  S
O277        C284   1.275       .  A
O278       Al282   1.768       .  S
O279        C280   1.263       .  A
C280        C404   1.487       .  S
C281        C424   1.461       .  S
C284        C564   1.491       .  S
C285        O286   1.257       .  A
C285        C387   1.485       .  S
O287        C302   1.257       .  A
O287       Al295   1.882       .  S
C288        O298   1.260       .  A
C288        O289   1.270       .  A
C288        C494   1.495       .  S
O289       Al291   1.951       .  S
O290        C292   1.255       .  A
O290       Al291   1.859       .  S
Al291       O299   1.870       .  S
Al291       O301   1.959       .  S
Al291       O300   1.769       .  S
C292        O305   1.269       .  A
C292        C454   1.472       .  S
O293        C303   1.257       .  A
O293       Al295   1.873       .  S
O294        C307   1.261       .  A
O294       Al304   1.886       .  S
Al295       O308   1.941       .  S
Al295       O305   1.948       .  S
Al295       O300   1.771       .  S
O296        C303   1.272       .  A
O296       Al304   1.955       .  S
O297        C306   1.274       .  A
O297       Al304   1.964       .  S
O298       Al304   1.892       .  S
O299        C306   1.258       .  A
O300       Al304   1.771       .  S
O301        C302   1.271       .  A
C302        C364   1.489       .  S
C303        C377   1.479       .  S
C306        C557   1.486       .  S
C307        O308   1.269       .  A
C307        C407   1.488       .  S
O309        C324   1.268       .  A
O309       Al317   1.934       .  S
C310        O320   1.268       .  A
C310        O311   1.262       .  A
C310        C447   1.492       .  S
O311       Al313   1.901       .  S
O312        C314   1.273       .  A
O312       Al313   1.965       .  S
Al313       O321   1.969       .  S
Al313       O323   1.886       .  S
Al313       O322   1.770       .  S
C314        O327   1.255       .  A
C314        C367   1.484       .  S
O315        C325   1.269       .  A
O315       Al317   1.938       .  S
O316        C329   1.270       .  A
O316      Al1158   1.958       .  S
Al317       O327   1.868       .  S
Al317      O1162   1.879       .  S
Al317       O322   1.769       .  S
O318        C325   1.254       .  A
O318       Al326   1.862       .  S
O319        C328   1.260       .  A
O319       Al326   1.872       .  S
O320       Al326   1.942       .  S
O321        C328   1.276       .  A
O322       Al326   1.769       .  S
O323        C324   1.261       .  A
C324        C357   1.484       .  S
C325        C487   1.456       .  S
Al326      O1148   1.958   1_554  S
C328        C617   1.490       .  S
C329        O330   1.256       .  A
C329        C374   1.487       .  S
O330      Al1149   1.879       .  S
O331        C346   1.256       .  A
O331      Al1171   1.881       .  S
C332        O342   1.262       .  A
C332        O333   1.269       .  A
C332        C417   1.491       .  S
O333       Al335   1.940       .  S
O334        C336   1.255       .  A
O334       Al335   1.862       .  S
Al335       O343   1.876       .  S
Al335      O1177   1.952   1_554  S
Al335       O344   1.768       .  S
C336        O349   1.269       .  A
C336        C507   1.466       .  S
O337        C347   1.255       .  A
O337       Al339   1.866       .  S
O338        C351   1.263       .  A
O338       Al348   1.893       .  S
Al339       O352   1.931       .  S
Al339       O349   1.941       .  S
Al339      O1163   1.881       .  S
Al339       O344   1.769       .  S
O340        C347   1.271       .  A
O340       Al348   1.955       .  S
O341        C350   1.274       .  A
O341       Al348   1.961       .  S
O342       Al348   1.903       .  S
O343        C350   1.260       .  A
O344       Al348   1.772       .  S
O345        C346   1.269       .  A
O345      Al1167   1.952       .  S
C346        C397   1.486       .  S
C347        C384   1.480       .  S
C350        C587   1.484       .  S
C351        O352   1.268       .  A
C351        C354   1.484       .  S
C353        C354   1.407       .  A
C353        C358   1.400   1_655  A
C353        H360   1.082       .  S
C354        C355   1.408       .  A
C355        C356   1.397   1_655  A
C355        F362   1.358       .  S
C356        C357   1.406       .  A
C356        H361   1.083       .  S
C357        C358   1.408       .  A
C358       F1191   1.357       .  S
F359       C1190   1.357       .  S
C363        C364   1.404       .  A
C363        C368   1.400       .  A
C363        H370   1.084       .  S
C364        C365   1.415       .  A
C365        C366   1.401       .  A
C365        F372   1.357       .  S
C366        C367   1.401       .  A
C366        H371   1.083       .  S
C367        C368   1.412       .  A
C368        F369   1.358       .  S
C373        C374   1.405       .  A
C373        C378   1.400       .  A
C373        H380   1.084       .  S
C374        C375   1.415       .  A
C375        C376   1.398       .  A
C375        F382   1.357       .  S
C376        C377   1.400       .  A
C376        H381   1.084       .  S
C377        C378   1.410       .  A
C378        F379   1.358       .  S
C383        C384   1.401       .  A
C383        C388   1.399       .  A
C383        H390   1.084       .  S
C384        C385   1.411       .  A
C385        C386   1.397       .  A
C385        F392   1.358       .  S
C386        C387   1.403       .  A
C386        H391   1.084       .  S
C387        C388   1.415       .  A
C388        F389   1.358       .  S
C393        C394   1.400       .  A
C393        C398   1.401       .  A
C393        H400   1.083       .  S
C394        C395   1.407       .  A
C395        C396   1.398       .  A
C395        F402   1.358       .  S
C396        C397   1.405       .  A
C396        H401   1.083       .  S
C397        C398   1.414       .  A
C398        F399   1.357       .  S
C403        C404   1.406       .  A
C403        C408   1.397   1_655  A
C403        H410   1.083       .  S
C404        C405   1.410       .  A
C405        C406   1.401   1_655  A
C405        F412   1.357       .  S
C406        C407   1.406       .  A
C406        H411   1.082       .  S
C407        C408   1.410       .  A
C408        F409   1.358       .  S
C413        C414   1.408       .  A
C413        C418   1.405       .  A
C413        H420   1.083       .  S
C414        C415   1.411       .  A
C415        C416   1.400       .  A
C415        F422   1.357       .  S
C416        C417   1.406       .  A
C416        H421   1.083       .  S
C417        C418   1.410       .  A
C418        F419   1.357       .  S
C423        C424   1.401       .  A
C423        C428   1.392       .  A
C423        H430   1.084       .  S
C424        C425   1.407       .  A
C425        C426   1.391       .  A
C425        F432   1.358       .  S
C426        C427   1.401       .  A
C426        H431   1.084       .  S
C427        C428   1.407       .  A
C428        F429   1.358       .  S
C433        C434   1.404       .  A
C433        C438   1.394       .  A
C433        H440   1.083       .  S
C434        C435   1.410       .  A
C435        C436   1.402       .  A
C435        F442   1.357       .  S
C436        C437   1.406       .  A
C436        H441   1.083       .  S
C437        C438   1.410       .  A
C438        F439   1.358       .  S
C443        C444   1.407       .  A
C443        C448   1.403       .  A
C443        H450   1.083       .  S
C444        C445   1.411       .  A
C445        C446   1.403       .  A
C445        F452   1.357       .  S
C446        C447   1.406       .  A
C446        H451   1.083       .  S
C447        C448   1.410       .  A
C448        F449   1.357       .  S
C453        C454   1.408       .  A
C453        C458   1.390       .  A
C453        H460   1.082       .  S
C454        C455   1.404       .  A
C455        C456   1.394       .  A
C455        F462   1.358       .  S
C456        C457   1.409       .  A
C456        H461   1.083       .  S
C457        C458   1.402       .  A
C458        F459   1.358       .  S
C463        C464   1.408       .  A
C463        C468   1.400       .  A
C463        H470   1.083       .  S
C464        C465   1.402       .  A
C465        C466   1.398       .  A
C465        F472   1.357       .  S
C466        C467   1.411       .  A
C466        H471   1.083       .  S
C467        C468   1.407       .  A
C468        F469   1.357       .  S
C473        C474   1.403       .  A
C473        C478   1.396       .  A
C473        H480   1.083       .  S
C474        C475   1.415       .  A
C475        C476   1.400       .  A
C475        F482   1.358       .  S
C476        C477   1.401       .  A
C476        H481   1.084       .  S
C477        C478   1.410       .  A
C478        F479   1.358       .  S
C483        C488   1.392       .  A
C483       C1316   1.402   1_554  A
C483        H490   1.085       .  S
C484        C485   1.405       .  A
C484       C1315   1.402       .  A
C485        C486   1.389       .  A
C485        F492   1.358       .  S
C486       C1319   1.400       .  A
C486        H491   1.084       .  S
C487        C488   1.406       .  A
C487       C1318   1.400   1_554  A
C488        F489   1.358       .  S
C493        C494   1.407       .  A
C493        C498   1.404       .  A
C493        H500   1.083       .  S
C494        C495   1.413       .  A
C495        C496   1.403       .  A
C495        F502   1.358       .  S
C496        C497   1.405       .  A
C496        H501   1.084       .  S
C497        C498   1.410       .  A
C498        F499   1.357       .  S
C503        C508   1.392       .  A
C503       C1336   1.401   1_554  A
C503        H510   1.084       .  S
C504        C505   1.409       .  A
C504       C1335   1.401       .  A
C505        C506   1.392       .  A
C505        F512   1.358       .  S
C506       C1339   1.401       .  A
C506        H511   1.084       .  S
C507        C508   1.409       .  A
C507       C1338   1.401   1_554  A
C508        F509   1.358       .  S
C513        C514   1.406       .  A
C513        C518   1.403       .  A
C513        H520   1.083       .  S
C514        C515   1.412       .  A
C515        C516   1.402       .  A
C515        F522   1.358       .  S
C516        C517   1.406       .  A
C516        H521   1.083       .  S
C517        C518   1.411       .  A
C518        F519   1.357       .  S
C523        C524   1.410       .  A
C523        C528   1.399       .  A
C523        H530   1.083       .  S
C524        C525   1.405       .  A
C525        C526   1.401       .  A
C525        F532   1.357       .  S
C526        C527   1.410       .  A
C526        H531   1.083       .  S
C527        C528   1.405       .  A
C528        F529   1.357       .  S
C533        C534   1.405       .  A
C533        C538   1.400       .  A
C533        H540   1.084       .  S
C534        C535   1.415       .  A
C535        C536   1.401       .  A
C535        F542   1.358       .  S
C536        C537   1.400       .  A
C536        H541   1.084       .  S
C537        C538   1.409       .  A
C538        F539   1.358       .  S
C543        C544   1.404       .  A
C543        C548   1.394       .  A
C543        H550   1.083       .  S
C544        C545   1.408       .  A
C545        C546   1.399       .  A
C545        F552   1.357       .  S
C546        C547   1.406       .  A
C546        H551   1.083       .  S
C547        C548   1.408       .  A
C548       F1381   1.358       .  S
F549       C1380   1.358       .  S
C553        C554   1.411       .  A
C553        C558   1.400       .  A
C553        H560   1.083       .  S
C554        C555   1.404       .  A
C555        C556   1.399       .  A
C555        F562   1.357       .  S
C556        C557   1.410       .  A
C556        H561   1.083       .  S
C557        C558   1.405       .  A
C558        F559   1.357       .  S
C563        C564   1.403       .  A
C563        C568   1.401       .  A
C563        H570   1.083       .  S
C564        C565   1.416       .  A
C565        C566   1.400       .  A
C565        F572   1.358       .  S
C566        C567   1.401       .  A
C566        H571   1.084       .  S
C567        C568   1.412       .  A
C568        F569   1.358       .  S
C573        C574   1.404       .  A
C573        C578   1.395   1_655  A
C573        H580   1.083       .  S
C574        C575   1.409       .  A
C575        C576   1.398   1_655  A
C575        F582   1.358       .  S
C576        C577   1.405       .  A
C576        H581   1.083       .  S
C577        C578   1.409       .  A
C578        F579   1.358       .  S
C583        C588   1.400   1_565  A
C583       C1416   1.411   1_554  A
C583        H590   1.083       .  S
C584        C585   1.405       .  A
C584       C1415   1.411       .  A
C585        C586   1.399   1_565  A
C585        F592   1.357       .  S
C586       C1419   1.409       .  A
C586        H591   1.083       .  S
C587        C588   1.405       .  A
C587       C1418   1.409   1_554  A
C588        F589   1.358       .  S
C593        C594   1.411       .  A
C593        C598   1.398       .  A
C593        H600   1.083       .  S
C594        C595   1.406       .  A
C595        C596   1.398       .  A
C595        F602   1.357       .  S
C596        C597   1.408       .  A
C596        H601   1.083       .  S
C597        C598   1.403       .  A
C598        F599   1.357       .  S
C603        C604   1.409       .  A
C603        C608   1.396       .  A
C603        H610   1.083       .  S
C604        C605   1.403       .  A
C605        C606   1.400       .  A
C605        F612   1.357       .  S
C606        C607   1.411       .  A
C606        H611   1.083       .  S
C607        C608   1.403       .  A
C608        F609   1.357       .  S
C613        C614   1.410       .  A
C613       C1450   1.403   1_565  A
C613        H620   1.083       .  S
C614        C615   1.404   1_565  A
C615       C1448   1.399       .  A
C615        F622   1.358   1_545  S
C616        C617   1.411   1_556  A
C616       C1447   1.399       .  A
C616        H621   1.083       .  S
C617        C618   1.406       .  A
C618       C1445   1.403   1_545  A
C618        F619   1.357       .  S
C623        C624   1.401       .  A
C623        C628   1.401       .  A
C623        H630   1.084       .  S
C624        C625   1.406       .  A
C625        C626   1.398       .  A
C625        F632   1.358       .  S
C626        C627   1.406       .  A
C626        H631   1.083       .  S
C627        C628   1.414       .  A
C628        F629   1.358       .  S
C633        C634   1.404       .  A
C633        C638   1.401       .  A
C633        H640   1.084       .  S
C634        C635   1.415       .  A
C635        C636   1.399       .  A
C635        F642   1.357       .  S
C636        C637   1.400       .  A
C636        H641   1.083       .  S
C637        C638   1.412       .  A
C638        F639   1.358       .  S
C643        C644   1.407       .  A
C643        C648   1.401   1_455  A
C643        H650   1.083       .  S
C644        C645   1.410       .  A
C645        C646   1.398   1_455  A
C645        F652   1.357       .  S
C646        C647   1.406       .  A
C646        H651   1.083       .  S
C647        C648   1.409       .  A
C648       F1481   1.357       .  S
F649       C1480   1.358       .  S
C653        C658   1.401       .  A
C653       C1486   1.410   1_554  A
C653        H660   1.083       .  S
C654        C655   1.405       .  A
C654       C1485   1.410       .  A
C655        C656   1.400       .  A
C655        F662   1.357       .  S
C656       C1489   1.411       .  A
C656        H661   1.083       .  S
C657        C658   1.405       .  A
C657       C1488   1.411   1_554  A
C658        F659   1.357       .  S
C663        C668   1.391       .  A
C663       C1496   1.401       .  A
C663        H670   1.084       .  S
C664        C665   1.407       .  A
C664       C1495   1.401   1_554  A
C665        C666   1.392       .  A
C665        F672   1.358       .  S
C666       C1499   1.401   1_554  A
C666        H671   1.084       .  S
C667        C668   1.407       .  A
C667       C1498   1.401       .  A
C668        F669   1.358       .  S
C673        C674   1.408       .  A
C673        C678   1.402       .  A
C673        H680   1.083       .  S
C674        C675   1.410       .  A
C675        C676   1.404       .  A
C675        F682   1.357       .  S
C676        C677   1.408       .  A
C676        H681   1.083       .  S
C677        C678   1.409       .  A
C678        F679   1.357       .  S
C683        C684   1.401       .  A
C683        C688   1.399       .  A
C683        H690   1.083       .  S
C684       C1517   1.414   1_554  A
C685        C686   1.401       .  A
C685       C1516   1.414       .  A
C685        F692   1.358       .  S
C686        C687   1.402       .  A
C686        H691   1.083       .  S
C687       C1520   1.414       .  A
C688       C1519   1.414   1_554  A
C688        F689   1.358       .  S
C693        C698   1.391       .  A
C693       C1526   1.405       .  A
C693        H700   1.085       .  S
C694        C695   1.404   1_554  A
C694       C1525   1.405       .  A
C695        C696   1.391       .  A
C695        F702   1.358       .  S
C696       C1529   1.405       .  A
C696        H701   1.084       .  S
C697        C698   1.404       .  A
C697       C1528   1.405       .  A
C698        F699   1.358       .  S
C703        C704   1.408       .  A
C703        C708   1.403       .  A
C703        H710   1.083       .  S
C704        C705   1.411       .  A
C705        C706   1.406       .  A
C705        F712   1.357       .  S
C706        C707   1.408       .  A
C706        H711   1.083       .  S
C707        C708   1.410       .  A
C708        F709   1.357       .  S
C713        C714   1.405       .  A
C713        C718   1.396       .  A
C713        H720   1.083       .  S
C714        C715   1.409       .  A
C715        C716   1.400       .  A
C715       F1554   1.357       .  S
C716        C717   1.406       .  A
C716        H721   1.083       .  S
C717        C718   1.410       .  A
C718        F719   1.358       .  S
F722       C1547   1.357       .  S
C723        C724   1.401       .  A
C723        C728   1.400   1_565  A
C723        H730   1.083       .  S
C724        C725   1.413       .  A
C725        C726   1.403   1_565  A
C725        F732   1.358       .  S
C726        C727   1.404       .  A
C726        H731   1.083       .  S
C727        C728   1.415       .  A
C728        F729   1.358       .  S
C733        C734   1.400       .  A
C733        C738   1.389       .  A
C733        H740   1.083       .  S
C734        C735   1.406       .  A
C735        C736   1.391       .  A
C735        F742   1.358       .  S
C736        C737   1.401       .  A
C736        H741   1.084       .  S
C737        C738   1.405       .  A
C738        F739   1.358       .  S
C743        C744   1.406       .  A
C743        C748   1.404       .  A
C743        H750   1.083       .  S
C744        C745   1.412       .  A
C745        C746   1.402       .  A
C745        F752   1.358       .  S
C746        C747   1.406       .  A
C746        H751   1.083       .  S
C747        C748   1.411       .  A
C748        F749   1.357       .  S
C753        C754   1.406       .  A
C753        C758   1.399       .  A
C753        H760   1.084       .  S
C754        C755   1.404       .  A
C755        C756   1.401       .  A
C755        F762   1.357       .  S
C756        C757   1.410       .  A
C756        H761   1.083       .  S
C757        C758   1.409       .  A
C758        F759   1.357       .  S
C763        C764   1.407       .  A
C763        C768   1.399       .  A
C763        H770   1.083       .  S
C764        C765   1.403       .  A
C765        C766   1.400       .  A
C765        F772   1.358       .  S
C766        C767   1.411       .  A
C766        H771   1.083       .  S
C767        C768   1.407       .  A
C768        F769   1.357       .  S
C773        C774   1.411       .  A
C773        C778   1.399   1_545  A
C773        H780   1.083       .  S
C774        C775   1.406       .  A
C775        C776   1.403   1_545  A
C775        F782   1.357       .  S
C776        C777   1.410       .  A
C776        H781   1.083       .  S
C777        C778   1.404       .  A
C778        F779   1.358       .  S
C783        C784   1.401       .  A
C783        C788   1.401       .  A
C783        H790   1.083       .  S
C784        C785   1.406       .  A
C785        C786   1.399       .  A
C785        F792   1.358       .  S
C786        C787   1.406       .  A
C786        H791   1.083       .  S
C787        C788   1.413       .  A
C788        F789   1.358       .  S
C793        C794   1.411       .  A
C793        C798   1.401       .  A
C793        H800   1.083       .  S
C794        C795   1.408       .  A
C795        C796   1.399       .  A
C795        F802   1.357       .  S
C796        C797   1.407       .  A
C796        H801   1.083       .  S
C797        C798   1.404       .  A
C798        F799   1.357       .  S
C803        C804   1.404       .  A
C803        C808   1.392       .  A
C803        H810   1.083       .  S
C804        C805   1.409       .  A
C805        C806   1.399       .  A
C805        F812   1.357       .  S
C806        C807   1.406       .  A
C806        H811   1.083       .  S
C807        C808   1.408       .  A
C808        F809   1.358       .  S
C813        C814   1.400       .  A
C813        C818   1.389       .  A
C813        H820   1.084       .  S
C814        C815   1.407       .  A
C815        C816   1.389       .  A
C815        F822   1.358       .  S
C816        C817   1.400       .  A
C816        H821   1.084       .  S
C817        C818   1.407       .  A
C818        F819   1.358       .  S
C823        C824   1.409       .  A
C823        C828   1.406       .  A
C823        H830   1.083       .  S
C824        C825   1.410       .  A
C825        C826   1.403       .  A
C825        F832   1.357       .  S
C826        C827   1.408       .  A
C826        H831   1.083       .  S
C827        C828   1.411       .  A
C828        F829   1.357       .  S
O833        C848   1.268       .  A
O833       Al841   1.932       .  S
C834        O844   1.270       .  A
C834        O835   1.262       .  A
C834       C1659   1.496       .  S
O835       Al837   1.898       .  S
O836        C838   1.269       .  A
O836       Al837   1.953       .  S
Al837       O845   1.961       .  S
Al837       O847   1.879       .  S
Al837       O846   1.771       .  S
C838        O851   1.256       .  A
C838       C1616   1.476       .  S
O839        C849   1.267       .  A
O839       Al841   1.932       .  S
O840        C853   1.269       .  A
O840       Al850   1.950       .  S
Al841       O854   1.885       .  S
Al841       O851   1.877       .  S
Al841       O846   1.771       .  S
O842        C849   1.254       .  A
O842       Al850   1.855       .  S
O843        C852   1.259       .  A
O843       Al850   1.883       .  S
O844       Al850   1.950       .  S
O845        C852   1.274       .  A
O846       Al850   1.768       .  S
O847        C848   1.262       .  A
C848       C1636   1.479       .  S
C849       C1646   1.457       .  S
C852       C1609   1.486       .  S
C853        O854   1.258       .  A
C853       C1626   1.489       .  S
O855        C870   1.258       .  A
O855       Al863   1.879       .  S
C856        O866   1.260       .  A
C856        O857   1.271       .  A
C856       C1576   1.492       .  S
O857       Al859   1.950       .  S
O858        C860   1.253       .  A
O858       Al859   1.858       .  S
Al859       O867   1.878       .  S
Al859       O869   1.958       .  S
Al859       O868   1.768       .  S
C860        O873   1.268       .  A
C860       C1566   1.457       .  S
O861        C871   1.256       .  A
O861       Al863   1.873       .  S
O862        C875   1.261       .  A
O862       Al872   1.876       .  S
Al863       O876   1.934       .  S
Al863       O873   1.936       .  S
Al863       O868   1.770       .  S
O864        C871   1.272       .  A
O864       Al872   1.961       .  S
O865        C874   1.275       .  A
O865       Al872   1.966       .  S
O866       Al872   1.889       .  S
O867        C874   1.259       .  A
O868       Al872   1.768       .  S
O869        C870   1.271       .  A
C870       C1599   1.487       .  S
C871       C1586   1.480       .  S
C874       C1556   1.487       .  S
C875        O876   1.269       .  A
C875       C1639   1.479       .  S
O877        C892   1.269       .  A
O877       Al885   1.937       .  S
C878        O888   1.268       .  A
C878        O879   1.261       .  A
C878       C1536   1.497       .  S
O879       Al881   1.900       .  S
O880        C882   1.271       .  A
O880       Al881   1.956       .  S
Al881       O889   1.967       .  S
Al881       O891   1.881       .  S
Al881       O890   1.771       .  S
C882        O895   1.256       .  A
C882       C1596   1.480       .  S
O883        C893   1.269       .  A
O883       Al885   1.943       .  S
O884        C897   1.268       .  A
Al885       O895   1.870       .  S
Al885       O890   1.772       .  S
O886        C893   1.255       .  A
O886       Al894   1.858       .  S
O887        C896   1.258       .  A
O887       Al894   1.870       .  S
O888       Al894   1.946       .  S
O889        C896   1.276       .  A
O890       Al894   1.769       .  S
O891        C892   1.260       .  A
C892       C1549   1.485       .  S
C893       C1526   1.461       .  S
C896       C1516   1.486       .  S
C897        O898   1.259       .  A
C897       C1589   1.488       .  S
O899        C914   1.258   1_554  A
C900        O910   1.262       .  A
C900        O901   1.269       .  A
C900       C1509   1.492       .  S
O901       Al903   1.943       .  S
O902        C904   1.255       .  A
O902       Al903   1.864       .  S
Al903       O911   1.876       .  S
Al903       O912   1.770       .  S
C904        O917   1.268       .  A
C904       C1496   1.462       .  S
O905        C915   1.256       .  A
O905       Al907   1.873       .  S
O906        C919   1.263       .  A
O906       Al916   1.887       .  S
Al907       O920   1.931       .  S
Al907       O917   1.936       .  S
Al907       O912   1.770       .  S
O908        C915   1.272       .  A
O908       Al916   1.958       .  S
O909        C918   1.274       .  A
O909       Al916   1.963       .  S
O910       Al916   1.899       .  S
O911        C918   1.259       .  A
O912       Al916   1.773       .  S
O913        C914   1.269       .  A
C914       C1619   1.486       .  S
C915       C1629   1.482       .  S
C918       C1489   1.488       .  S
C919        O920   1.267       .  A
C919       C1546   1.484       .  S
O921        C936   1.269       .  A
O921       Al929   1.935       .  S
C922        O932   1.270       .  A
C922        O923   1.263       .  A
C922       C1656   1.496       .  S
O923       Al925   1.905       .  S
O924        C926   1.270       .  A
O924       Al925   1.956       .  S
Al925       O933   1.961       .  S
Al925       O935   1.892       .  S
Al925       O934   1.773       .  S
C926        O939   1.255       .  A
C926       C1456   1.474       .  S
O927        C937   1.269       .  A
O927       Al929   1.939       .  S
O928        C941   1.270       .  A
Al929       O939   1.872       .  S
Al929       O934   1.768       .  S
O930        C937   1.255       .  A
O930       Al938   1.862       .  S
O931        C940   1.260       .  A
O931       Al938   1.882       .  S
O932       Al938   1.946       .  S
O933        C940   1.274       .  A
O934       Al938   1.770       .  S
O935        C936   1.263       .  A
C936       C1476   1.488       .  S
C937       C1499   1.463       .  S
C940       C1446   1.485       .  S
C941        O942   1.256       .  A
C941       C1466   1.488       .  S
O943        C958   1.256       .  A
C944        O954   1.261       .  A
C944        O945   1.269       .  A
C944       C1579   1.492       .  S
O945       Al947   1.943       .  S
O946        C948   1.254       .  A
O946       Al947   1.860       .  S
Al947       O955   1.871       .  S
Al947       O956   1.770       .  S
C948        O961   1.268       .  A
C948       C1529   1.462       .  S
O949        C959   1.256       .  A
O949       Al951   1.867       .  S
O950        C963   1.262       .  A
O950       Al960   1.891       .  S
Al951       O964   1.933       .  S
Al951       O961   1.941       .  S
Al951       O956   1.770       .  S
O952        C959   1.272       .  A
O952       Al960   1.955       .  S
O953        C962   1.274       .  A
O953       Al960   1.958       .  S
O954       Al960   1.897       .  S
O955        C962   1.258       .  A
O956       Al960   1.770       .  S
O957        C958   1.270       .  A
C958       C1436   1.480       .  S
C959       C1429   1.479       .  S
C962       C1416   1.486       .  S
C963        O964   1.268       .  A
C963       C1479   1.486       .  S
O965        C980   1.266       .  A
O965       Al973   1.921       .  S
C966        O976   1.268       .  A
C966        O967   1.262       .  A
C966       C1539   1.495       .  S
O967       Al969   1.906       .  S
O968        C970   1.271       .  A
O968       Al969   1.949       .  S
Al969       O977   1.964       .  S
Al969       O979   1.889       .  S
Al969       O978   1.770       .  S
C970        O983   1.256       .  A
C970       C1439   1.481       .  S
O971        C981   1.268       .  A
O971       Al973   1.936       .  S
O972        C985   1.268       .  A
O972       Al982   1.949       .  S
Al973       O986   1.879       .  S
Al973       O983   1.869       .  S
Al973       O978   1.773       .  S
O974        C981   1.255       .  A
O974       Al982   1.858       .  S
O975        C984   1.260       .  A
O975       Al982   1.878       .  S
O976       Al982   1.943       .  S
O977        C984   1.275       .  A
O978       Al982   1.769       .  S
O979        C980   1.263       .  A
C980       C1406   1.480       .  S
C981       C1569   1.457       .  S
C984       C1399   1.486       .  S
C985        O986   1.256       .  A
C985       C1426   1.483       .  S
O987       C1002   1.257       .  A
O987       Al995   1.883       .  S
C988        O998   1.260       .  A
C988        O989   1.269       .  A
C988       C1506   1.494       .  S
O989       Al991   1.949       .  S
O990        C992   1.254       .  A
O990       Al991   1.856       .  S
Al991       O999   1.872       .  S
Al991      O1001   1.954       .  S
Al991      O1000   1.769       .  S
C992       O1005   1.269       .  A
C992       C1649   1.458       .  S
O993       C1003   1.255       .  A
O993       Al995   1.870       .  S
O994       C1007   1.259       .  A
O994      Al1004   1.878       .  S
Al995      O1008   1.930       .  S
Al995      O1005   1.936       .  S
Al995      O1000   1.771       .  S
O996       C1003   1.272       .  A
O996      Al1004   1.957       .  S
O997       C1006   1.275       .  A
O997      Al1004   1.964       .  S
O998      Al1004   1.893       .  S
O999       C1006   1.259       .  A
O1000     Al1004   1.769       .  S
O1001      C1002   1.269       .  A
C1002      C1459   1.486       .  S
C1003      C1469   1.483       .  S
C1006      C1386   1.486       .  S
C1007      O1008   1.268       .  A
C1007      C1409   1.479       .  S
O1009      C1024   1.268       .  A
O1009     Al1017   1.931       .  S
C1010      O1020   1.270       .  A
C1010      O1011   1.260       .  A
C1010      C1346   1.493       .  S
O1011     Al1013   1.890       .  S
O1012      C1014   1.272       .  A
O1012     Al1013   1.956       .  S
Al1013     O1021   1.966       .  S
Al1013     O1023   1.881       .  S
Al1013     O1022   1.771       .  S
C1014      O1027   1.257       .  A
C1014      C1359   1.486       .  S
O1015      C1025   1.269       .  A
O1015     Al1017   1.943       .  S
O1016      C1029   1.271       .  A
Al1017     O1027   1.875       .  S
Al1017     O1022   1.770       .  S
O1018      C1025   1.254       .  A
O1018     Al1026   1.861       .  S
O1019      C1028   1.258       .  A
O1019     Al1026   1.871       .  S
O1020     Al1026   1.950       .  S
O1021      C1028   1.275       .  A
O1022     Al1026   1.769       .  S
O1023      C1024   1.261       .  A
C1024      C1376   1.478       .  S
C1025      C1336   1.466       .  S
C1028      C1519   1.487       .  S
C1029      O1030   1.256       .  A
C1029      C1366   1.487       .  S
O1031      C1046   1.256       .  A
C1032      O1042   1.261       .  A
C1032      O1033   1.269       .  A
C1032      C1329   1.492       .  S
O1033     Al1035   1.945       .  S
O1034      C1036   1.255       .  A
O1034     Al1035   1.860       .  S
Al1035     O1043   1.876       .  S
Al1035     O1044   1.768       .  S
C1036      O1049   1.268       .  A
C1036      C1316   1.456       .  S
O1037      C1047   1.255       .  A
O1037     Al1039   1.870       .  S
O1038      C1051   1.260       .  A
O1038     Al1048   1.880       .  S
Al1039     O1052   1.929       .  S
Al1039     O1049   1.938       .  S
Al1039     O1044   1.773       .  S
O1040      C1047   1.271       .  A
O1040     Al1048   1.955       .  S
O1041      C1050   1.275       .  A
O1041     Al1048   1.964       .  S
O1042     Al1048   1.897       .  S
O1043      C1050   1.260       .  A
O1044     Al1048   1.770       .  S
O1045      C1046   1.269       .  A
C1046      C1306   1.485       .  S
C1047      C1296   1.480       .  S
C1050      C1486   1.487       .  S
C1051      O1052   1.267       .  A
C1051      C1379   1.479       .  S
O1053      C1068   1.268       .  A
O1053     Al1061   1.934       .  S
C1054      O1064   1.269       .  A
C1054      O1055   1.261       .  A
C1054      C1276   1.494       .  S
O1055     Al1057   1.898       .  S
O1056      C1058   1.272       .  A
O1056     Al1057   1.960       .  S
Al1057     O1065   1.968       .  S
Al1057     O1067   1.888       .  S
Al1057     O1066   1.772       .  S
C1058      O1071   1.255       .  A
C1058      C1309   1.479       .  S
O1059      C1069   1.268       .  A
O1059     Al1061   1.937       .  S
O1060      C1073   1.270       .  A
O1060     Al1070   1.954       .  S
Al1061     O1074   1.877       .  S
Al1061     O1071   1.864       .  S
Al1061     O1066   1.768       .  S
O1062      C1069   1.255       .  A
O1062     Al1070   1.865       .  S
O1063      C1072   1.259       .  A
O1063     Al1070   1.872       .  S
O1064     Al1070   1.943       .  S
O1065      C1072   1.275       .  A
O1066     Al1070   1.770       .  S
O1067      C1068   1.263       .  A
C1068      C1266   1.486       .  S
C1069      C1289   1.470       .  S
C1072      C1606   1.491       .  S
C1073      O1074   1.257       .  A
C1073      C1299   1.485       .  S
O1075      C1090   1.258       .  A
O1075     Al1083   1.879       .  S
C1076      O1086   1.261       .  A
C1076      O1077   1.269       .  A
C1076      C1246   1.493       .  S
O1077     Al1079   1.945       .  S
O1078      C1080   1.254       .  A
O1078     Al1079   1.861       .  S
Al1079     O1087   1.875       .  S
Al1079     O1089   1.955       .  S
Al1079     O1088   1.770       .  S
C1080      O1093   1.269       .  A
C1080      C1259   1.461       .  S
O1081      C1091   1.255       .  A
O1081     Al1083   1.871       .  S
O1082      C1095   1.260       .  A
O1082     Al1092   1.879       .  S
Al1083     O1096   1.941       .  S
Al1083     O1093   1.939       .  S
Al1083     O1088   1.770       .  S
O1084      C1091   1.272       .  A
O1084     Al1092   1.962       .  S
O1085      C1094   1.276       .  A
O1085     Al1092   1.969       .  S
O1086     Al1092   1.894       .  S
O1087      C1094   1.259       .  A
O1088     Al1092   1.771       .  S
O1089      C1090   1.269       .  A
C1090      C1356   1.486       .  S
C1091      C1369   1.479       .  S
C1094      C1559   1.491       .  S
C1095      O1096   1.270       .  A
C1095      C1269   1.486       .  S
O1097      C1112   1.268       .  A
O1097     Al1105   1.936       .  S
C1098      O1108   1.269       .  A
C1098      O1099   1.261       .  A
C1098      C1349   1.492       .  S
O1099     Al1101   1.897       .  S
O1100      C1102   1.272       .  A
O1100     Al1101   1.963       .  S
Al1101     O1109   1.966       .  S
Al1101     O1111   1.890       .  S
Al1101     O1110   1.771       .  S
C1102      O1115   1.255       .  A
C1102      C1226   1.475       .  S
O1103      C1113   1.267       .  A
O1103     Al1105   1.938       .  S
O1104      C1117   1.271       .  A
O1104     Al1114   1.953       .  S
Al1105     O1118   1.878       .  S
Al1105     O1115   1.868       .  S
Al1105     O1110   1.771       .  S
O1106      C1113   1.253       .  A
O1106     Al1114   1.863       .  S
O1107      C1116   1.258       .  A
O1107     Al1114   1.874       .  S
O1108     Al1114   1.943       .  S
O1109      C1116   1.275       .  A
O1110     Al1114   1.768       .  S
O1111      C1112   1.263       .  A
C1112      C1236   1.487       .  S
C1113      C1256   1.461       .  S
C1116      C1396   1.491       .  S
C1117      O1118   1.257       .  A
C1117      C1219   1.485       .  S
O1119      C1134   1.257       .  A
O1119     Al1127   1.882       .  S
C1120      O1130   1.260       .  A
C1120      O1121   1.270       .  A
C1120      C1326   1.495       .  S
O1121     Al1123   1.951       .  S
O1122      C1124   1.255       .  A
O1122     Al1123   1.859       .  S
Al1123     O1131   1.870       .  S
Al1123     O1133   1.959       .  S
Al1123     O1132   1.769       .  S
C1124      O1137   1.269       .  A
C1124      C1286   1.472       .  S
O1125      C1135   1.257       .  A
O1125     Al1127   1.873       .  S
O1126      C1139   1.261       .  A
O1126     Al1136   1.886       .  S
Al1127     O1140   1.941       .  S
Al1127     O1137   1.948       .  S
Al1127     O1132   1.771       .  S
O1128      C1135   1.272       .  A
O1128     Al1136   1.955       .  S
O1129      C1138   1.274       .  A
O1129     Al1136   1.964       .  S
O1130     Al1136   1.892       .  S
O1131      C1138   1.258       .  A
O1132     Al1136   1.771       .  S
O1133      C1134   1.271       .  A
C1134      C1196   1.489       .  S
C1135      C1209   1.479       .  S
C1138      C1389   1.486       .  S
C1139      O1140   1.269       .  A
C1139      C1239   1.488       .  S
O1141      C1156   1.268       .  A
O1141     Al1149   1.934       .  S
C1142      O1152   1.268       .  A
C1142      O1143   1.262       .  A
C1142      C1279   1.492       .  S
O1143     Al1145   1.901       .  S
O1144      C1146   1.273       .  A
O1144     Al1145   1.965       .  S
Al1145     O1153   1.969       .  S
Al1145     O1155   1.886       .  S
Al1145     O1154   1.770       .  S
C1146      O1159   1.255       .  A
C1146      C1199   1.484       .  S
O1147      C1157   1.269       .  A
O1147     Al1149   1.938       .  S
O1148      C1161   1.270       .  A
Al1149     O1159   1.868       .  S
Al1149     O1154   1.769       .  S
O1150      C1157   1.254       .  A
O1150     Al1158   1.862       .  S
O1151      C1160   1.260       .  A
O1151     Al1158   1.872       .  S
O1152     Al1158   1.942       .  S
O1153      C1160   1.276       .  A
O1154     Al1158   1.769       .  S
O1155      C1156   1.261       .  A
C1156      C1189   1.484       .  S
C1157      C1319   1.456       .  S
C1160      C1449   1.490       .  S
C1161      O1162   1.257   1_556  A
C1161      C1206   1.487       .  S
O1163      C1178   1.256   1_554  A
C1164      O1174   1.262       .  A
C1164      O1165   1.269       .  A
C1164      C1249   1.491       .  S
O1165     Al1167   1.940       .  S
O1166      C1168   1.255       .  A
O1166     Al1167   1.862       .  S
Al1167     O1175   1.876       .  S
Al1167     O1176   1.768       .  S
C1168      O1181   1.269       .  A
C1168      C1339   1.466       .  S
O1169      C1179   1.255       .  A
O1169     Al1171   1.866       .  S
O1170      C1183   1.263       .  A
O1170     Al1180   1.893       .  S
Al1171     O1184   1.931       .  S
Al1171     O1181   1.941       .  S
Al1171     O1176   1.769       .  S
O1172      C1179   1.271       .  A
O1172     Al1180   1.955       .  S
O1173      C1182   1.274       .  A
O1173     Al1180   1.961       .  S
O1174     Al1180   1.903       .  S
O1175      C1182   1.260       .  A
O1176     Al1180   1.772       .  S
O1177      C1178   1.269       .  A
C1178      C1229   1.486       .  S
C1179      C1216   1.480       .  S
C1182      C1419   1.484       .  S
C1183      O1184   1.268       .  A
C1183      C1186   1.484       .  S
C1185      C1186   1.407       .  A
C1185      C1190   1.400   1_655  A
C1185      H1192   1.082       .  S
C1186      C1187   1.408       .  A
C1187      C1188   1.397   1_655  A
C1187      F1194   1.358       .  S
C1188      C1189   1.406       .  A
C1188      H1193   1.083       .  S
C1189      C1190   1.408       .  A
C1195      C1196   1.404       .  A
C1195      C1200   1.400       .  A
C1195      H1202   1.083       .  S
C1196      C1197   1.415       .  A
C1197      C1198   1.401       .  A
C1197      F1204   1.357       .  S
C1198      C1199   1.401       .  A
C1198      H1203   1.083       .  S
C1199      C1200   1.412       .  A
C1200      F1201   1.358       .  S
C1205      C1206   1.405       .  A
C1205      C1210   1.400       .  A
C1205      H1212   1.084       .  S
C1206      C1207   1.415       .  A
C1207      C1208   1.398       .  A
C1207      F1214   1.357       .  S
C1208      C1209   1.400       .  A
C1208      H1213   1.084       .  S
C1209      C1210   1.410       .  A
C1210      F1211   1.358       .  S
C1215      C1216   1.401       .  A
C1215      C1220   1.399       .  A
C1215      H1222   1.084       .  S
C1216      C1217   1.411       .  A
C1217      C1218   1.397       .  A
C1217      F1224   1.358       .  S
C1218      C1219   1.403       .  A
C1218      H1223   1.083       .  S
C1219      C1220   1.415       .  A
C1220      F1221   1.358       .  S
C1225      C1226   1.400       .  A
C1225      C1230   1.401       .  A
C1225      H1232   1.083       .  S
C1226      C1227   1.408       .  A
C1227      C1228   1.398       .  A
C1227      F1234   1.358       .  S
C1228      C1229   1.405       .  A
C1228      H1233   1.083       .  S
C1229      C1230   1.414       .  A
C1230      F1231   1.357       .  S
C1235      C1236   1.406       .  A
C1235      C1240   1.397   1_655  A
C1235      H1242   1.083       .  S
C1236      C1237   1.410       .  A
C1237      C1238   1.401   1_655  A
C1237      F1244   1.357       .  S
C1238      C1239   1.406       .  A
C1238      H1243   1.082       .  S
C1239      C1240   1.410       .  A
C1240      F1241   1.358       .  S
C1245      C1246   1.408       .  A
C1245      C1250   1.405       .  A
C1245      H1252   1.083       .  S
C1246      C1247   1.411       .  A
C1247      C1248   1.400       .  A
C1247      F1254   1.357       .  S
C1248      C1249   1.406       .  A
C1248      H1253   1.083       .  S
C1249      C1250   1.410       .  A
C1250      F1251   1.357       .  S
C1255      C1256   1.401       .  A
C1255      C1260   1.392       .  A
C1255      H1262   1.084       .  S
C1256      C1257   1.407       .  A
C1257      C1258   1.391       .  A
C1257      F1264   1.358       .  S
C1258      C1259   1.401       .  A
C1258      H1263   1.084       .  S
C1259      C1260   1.407       .  A
C1260      F1261   1.358       .  S
C1265      C1266   1.404       .  A
C1265      C1270   1.394       .  A
C1265      H1272   1.083       .  S
C1266      C1267   1.410       .  A
C1267      C1268   1.402       .  A
C1267      F1274   1.357       .  S
C1268      C1269   1.406       .  A
C1268      H1273   1.083       .  S
C1269      C1270   1.410       .  A
C1270      F1271   1.358       .  S
C1275      C1276   1.407       .  A
C1275      C1280   1.403       .  A
C1275      H1282   1.083       .  S
C1276      C1277   1.411       .  A
C1277      C1278   1.403       .  A
C1277      F1284   1.357       .  S
C1278      C1279   1.406       .  A
C1278      H1283   1.083       .  S
C1279      C1280   1.410       .  A
C1280      F1281   1.357       .  S
C1285      C1286   1.408       .  A
C1285      C1290   1.390       .  A
C1285      H1292   1.082       .  S
C1286      C1287   1.404       .  A
C1287      C1288   1.394       .  A
C1287      F1294   1.358       .  S
C1288      C1289   1.409       .  A
C1288      H1293   1.083       .  S
C1289      C1290   1.402       .  A
C1290      F1291   1.358       .  S
C1295      C1296   1.408       .  A
C1295      C1300   1.400       .  A
C1295      H1302   1.083       .  S
C1296      C1297   1.402       .  A
C1297      C1298   1.398       .  A
C1297      F1304   1.357       .  S
C1298      C1299   1.411       .  A
C1298      H1303   1.083       .  S
C1299      C1300   1.407       .  A
C1300      F1301   1.357       .  S
C1305      C1306   1.403       .  A
C1305      C1310   1.396       .  A
C1305      H1312   1.084       .  S
C1306      C1307   1.415       .  A
C1307      C1308   1.400       .  A
C1307      F1314   1.357       .  S
C1308      C1309   1.401       .  A
C1308      H1313   1.084       .  S
C1309      C1310   1.410       .  A
C1310      F1311   1.358       .  S
C1315      C1320   1.392       .  A
C1315      H1322   1.085       .  S
C1316      C1317   1.405       .  A
C1317      C1318   1.389       .  A
C1317      F1324   1.358       .  S
C1318      H1323   1.084       .  S
C1319      C1320   1.406       .  A
C1320      F1321   1.358       .  S
C1325      C1326   1.407       .  A
C1325      C1330   1.404       .  A
C1325      H1332   1.083       .  S
C1326      C1327   1.413       .  A
C1327      C1328   1.403       .  A
C1327      F1334   1.358       .  S
C1328      C1329   1.405       .  A
C1328      H1333   1.084       .  S
C1329      C1330   1.410       .  A
C1330      F1331   1.357       .  S
C1335      C1340   1.392       .  A
C1335      H1342   1.084       .  S
C1336      C1337   1.409       .  A
C1337      C1338   1.392       .  A
C1337      F1344   1.358       .  S
C1338      H1343   1.084       .  S
C1339      C1340   1.409       .  A
C1340      F1341   1.358       .  S
C1345      C1346   1.406       .  A
C1345      C1350   1.403       .  A
C1345      H1352   1.083       .  S
C1346      C1347   1.412       .  A
C1347      C1348   1.402       .  A
C1347      F1354   1.358       .  S
C1348      C1349   1.406       .  A
C1348      H1353   1.083       .  S
C1349      C1350   1.410       .  A
C1350      F1351   1.357       .  S
C1355      C1356   1.410       .  A
C1355      C1360   1.399       .  A
C1355      H1362   1.083       .  S
C1356      C1357   1.405       .  A
C1357      C1358   1.401       .  A
C1357      F1364   1.357       .  S
C1358      C1359   1.410       .  A
C1358      H1363   1.083       .  S
C1359      C1360   1.405       .  A
C1360      F1361   1.357       .  S
C1365      C1366   1.405       .  A
C1365      C1370   1.400       .  A
C1365      H1372   1.084       .  S
C1366      C1367   1.415       .  A
C1367      C1368   1.401       .  A
C1367      F1374   1.358       .  S
C1368      C1369   1.400       .  A
C1368      H1373   1.084       .  S
C1369      C1370   1.409       .  A
C1370      F1371   1.358       .  S
C1375      C1376   1.404       .  A
C1375      C1380   1.394       .  A
C1375      H1382   1.083       .  S
C1376      C1377   1.408       .  A
C1377      C1378   1.399       .  A
C1377      F1384   1.357       .  S
C1378      C1379   1.406       .  A
C1378      H1383   1.083       .  S
C1379      C1380   1.408       .  A
C1385      C1386   1.411       .  A
C1385      C1390   1.400       .  A
C1385      H1392   1.083       .  S
C1386      C1387   1.404       .  A
C1387      C1388   1.399       .  A
C1387      F1394   1.357       .  S
C1388      C1389   1.410       .  A
C1388      H1393   1.083       .  S
C1389      C1390   1.405       .  A
C1390      F1391   1.357       .  S
C1395      C1396   1.403       .  A
C1395      C1400   1.401       .  A
C1395      H1402   1.083       .  S
C1396      C1397   1.416       .  A
C1397      C1398   1.400       .  A
C1397      F1404   1.358       .  S
C1398      C1399   1.401       .  A
C1398      H1403   1.084       .  S
C1399      C1400   1.412       .  A
C1400      F1401   1.358       .  S
C1405      C1406   1.404       .  A
C1405      C1410   1.395   1_655  A
C1405      H1412   1.083       .  S
C1406      C1407   1.409       .  A
C1407      C1408   1.398   1_655  A
C1407      F1414   1.358       .  S
C1408      C1409   1.405       .  A
C1408      H1413   1.083       .  S
C1409      C1410   1.409       .  A
C1410      F1411   1.358       .  S
C1415      C1420   1.400   1_565  A
C1415      H1422   1.083       .  S
C1416      C1417   1.405       .  A
C1417      C1418   1.399   1_565  A
C1417      F1424   1.357       .  S
C1418      H1423   1.083       .  S
C1419      C1420   1.405       .  A
C1420      F1421   1.358       .  S
C1425      C1426   1.411       .  A
C1425      C1430   1.398       .  A
C1425      H1432   1.083       .  S
C1426      C1427   1.406       .  A
C1427      C1428   1.398       .  A
C1427      F1434   1.357       .  S
C1428      C1429   1.408       .  A
C1428      H1433   1.083       .  S
C1429      C1430   1.403       .  A
C1430      F1431   1.357       .  S
C1435      C1436   1.409       .  A
C1435      C1440   1.396       .  A
C1435      H1442   1.083       .  S
C1436      C1437   1.403       .  A
C1437      C1438   1.400       .  A
C1437      F1444   1.357       .  S
C1438      C1439   1.411       .  A
C1438      H1443   1.083       .  S
C1439      C1440   1.403       .  A
C1440      F1441   1.357       .  S
C1445      C1446   1.410   1_554  A
C1445      H1452   1.083       .  S
C1446      C1447   1.404   1_565  A
C1447      F1454   1.358   1_545  S
C1448      C1449   1.411       .  A
C1448      H1453   1.083       .  S
C1449      C1450   1.406       .  A
C1450      F1451   1.357       .  S
C1455      C1456   1.401       .  A
C1455      C1460   1.401       .  A
C1455      H1462   1.084       .  S
C1456      C1457   1.406       .  A
C1457      C1458   1.398       .  A
C1457      F1464   1.358       .  S
C1458      C1459   1.406       .  A
C1458      H1463   1.083       .  S
C1459      C1460   1.414       .  A
C1460      F1461   1.358       .  S
C1465      C1466   1.404       .  A
C1465      C1470   1.401       .  A
C1465      H1472   1.084       .  S
C1466      C1467   1.415       .  A
C1467      C1468   1.399       .  A
C1467      F1474   1.357       .  S
C1468      C1469   1.400       .  A
C1468      H1473   1.083       .  S
C1469      C1470   1.412       .  A
C1470      F1471   1.358       .  S
C1475      C1476   1.407       .  A
C1475      C1480   1.401   1_455  A
C1475      H1482   1.082       .  S
C1476      C1477   1.410       .  A
C1477      C1478   1.398   1_455  A
C1477      F1484   1.358       .  S
C1478      C1479   1.406       .  A
C1478      H1483   1.082       .  S
C1479      C1480   1.409       .  A
C1485      C1490   1.401       .  A
C1485      H1492   1.083       .  S
C1486      C1487   1.405       .  A
C1487      C1488   1.400       .  A
C1487      F1494   1.357       .  S
C1488      H1493   1.083       .  S
C1489      C1490   1.405       .  A
C1490      F1491   1.357       .  S
C1495      C1500   1.391       .  A
C1495      H1502   1.084       .  S
C1496      C1497   1.407       .  A
C1497      C1498   1.392       .  A
C1497      F1504   1.358       .  S
C1498      H1503   1.083       .  S
C1499      C1500   1.407       .  A
C1500      F1501   1.358       .  S
C1505      C1506   1.408       .  A
C1505      C1510   1.402       .  A
C1505      H1512   1.083       .  S
C1506      C1507   1.410       .  A
C1507      C1508   1.404       .  A
C1507      F1514   1.357       .  S
C1508      C1509   1.408       .  A
C1508      H1513   1.083       .  S
C1509      C1510   1.409       .  A
C1510      F1511   1.357       .  S
C1515      C1516   1.401       .  A
C1515      C1520   1.399       .  A
C1515      H1522   1.083       .  S
C1517      C1518   1.401       .  A
C1517      F1524   1.358       .  S
C1518      C1519   1.402       .  A
C1518      H1523   1.083       .  S
C1520      F1521   1.358       .  S
C1525      C1530   1.391       .  A
C1525      H1532   1.085       .  S
C1526      C1527   1.404       .  A
C1527      C1528   1.391       .  A
C1527      F1534   1.358       .  S
C1528      H1533   1.084       .  S
C1529      C1530   1.404   1_556  A
C1530      F1531   1.358       .  S
C1535      C1536   1.408       .  A
C1535      C1540   1.403       .  A
C1535      H1542   1.083       .  S
C1536      C1537   1.411       .  A
C1537      C1538   1.406       .  A
C1537      F1544   1.357       .  S
C1538      C1539   1.408       .  A
C1538      H1543   1.083       .  S
C1539      C1540   1.409       .  A
C1540      F1541   1.357       .  S
C1545      C1546   1.405       .  A
C1545      C1550   1.396       .  A
C1545      H1552   1.083       .  S
C1546      C1547   1.409       .  A
C1547      C1548   1.400       .  A
C1548      C1549   1.406       .  A
C1548      H1553   1.083       .  S
C1549      C1550   1.410       .  A
C1550      F1551   1.358       .  S
C1555      C1556   1.401       .  A
C1555      C1560   1.400   1_565  A
C1555      H1562   1.083       .  S
C1556      C1557   1.413       .  A
C1557      C1558   1.403   1_565  A
C1557      F1564   1.358       .  S
C1558      C1559   1.404       .  A
C1558      H1563   1.083       .  S
C1559      C1560   1.415       .  A
C1560      F1561   1.358       .  S
C1565      C1566   1.400       .  A
C1565      C1570   1.389       .  A
C1565      H1572   1.083       .  S
C1566      C1567   1.406       .  A
C1567      C1568   1.391       .  A
C1567      F1574   1.358       .  S
C1568      C1569   1.401       .  A
C1568      H1573   1.084       .  S
C1569      C1570   1.405       .  A
C1570      F1571   1.358       .  S
C1575      C1576   1.406       .  A
C1575      C1580   1.404       .  A
C1575      H1582   1.083       .  S
C1576      C1577   1.412       .  A
C1577      C1578   1.402       .  A
C1577      F1584   1.358       .  S
C1578      C1579   1.406       .  A
C1578      H1583   1.083       .  S
C1579      C1580   1.411       .  A
C1580      F1581   1.357       .  S
C1585      C1586   1.406       .  A
C1585      C1590   1.399       .  A
C1585      H1592   1.084       .  S
C1586      C1587   1.404       .  A
C1587      C1588   1.401       .  A
C1587      F1594   1.357       .  S
C1588      C1589   1.410       .  A
C1588      H1593   1.083       .  S
C1589      C1590   1.409       .  A
C1590      F1591   1.357       .  S
C1595      C1596   1.407       .  A
C1595      C1600   1.399       .  A
C1595      H1602   1.083       .  S
C1596      C1597   1.403       .  A
C1597      C1598   1.400       .  A
C1597      F1604   1.358       .  S
C1598      C1599   1.411       .  A
C1598      H1603   1.083       .  S
C1599      C1600   1.407       .  A
C1600      F1601   1.357       .  S
C1605      C1606   1.411       .  A
C1605      C1610   1.399   1_545  A
C1605      H1612   1.083       .  S
C1606      C1607   1.406       .  A
C1607      C1608   1.403   1_545  A
C1607      F1614   1.357       .  S
C1608      C1609   1.410       .  A
C1608      H1613   1.083       .  S
C1609      C1610   1.404       .  A
C1610      F1611   1.358       .  S
C1615      C1616   1.401       .  A
C1615      C1620   1.401       .  A
C1615      H1622   1.084       .  S
C1616      C1617   1.406       .  A
C1617      C1618   1.399       .  A
C1617      F1624   1.358       .  S
C1618      C1619   1.406       .  A
C1618      H1623   1.083       .  S
C1619      C1620   1.413       .  A
C1620      F1621   1.358       .  S
C1625      C1626   1.411       .  A
C1625      C1630   1.401       .  A
C1625      H1632   1.083       .  S
C1626      C1627   1.408       .  A
C1627      C1628   1.399       .  A
C1627      F1634   1.357       .  S
C1628      C1629   1.407       .  A
C1628      H1633   1.083       .  S
C1629      C1630   1.404       .  A
C1630      F1631   1.357       .  S
C1635      C1636   1.404       .  A
C1635      C1640   1.392       .  A
C1635      H1642   1.082       .  S
C1636      C1637   1.409       .  A
C1637      C1638   1.399       .  A
C1637      F1644   1.357       .  S
C1638      C1639   1.406       .  A
C1638      H1643   1.083       .  S
C1639      C1640   1.408       .  A
C1640      F1641   1.358       .  S
C1645      C1646   1.400       .  A
C1645      C1650   1.389       .  A
C1645      H1652   1.084       .  S
C1646      C1647   1.407       .  A
C1647      C1648   1.389       .  A
C1647      F1654   1.358       .  S
C1648      C1649   1.400       .  A
C1648      H1653   1.083       .  S
C1649      C1650   1.407       .  A
C1650      F1651   1.358       .  S
C1655      C1656   1.409       .  A
C1655      C1660   1.406       .  A
C1655      H1662   1.083       .  S
C1656      C1657   1.410       .  A
C1657      C1658   1.403       .  A
C1657      F1664   1.357       .  S
C1658      C1659   1.408       .  A
C1658      H1663   1.083       .  S
C1659      C1660   1.411       .  A
C1660      F1661   1.357       .  S
