geometry optimzed in LAMMPS
_audit_creation_date              2020-12-01 
_audit_creation_method            'lammps2cif' 
_symmetry_space_group_name_H-M    'P1' 
_symmetry_Int_Tables_number       1 
_symmetry_cell_setting            triclinic 
loop_ 
_symmetry_equiv_pos_as_xyz 
  x,y,z 
_cell_length_a                    28.43545248 
_cell_length_b                    44.52364455994533 
_cell_length_c                    28.47498374232957 
_cell_angle_alpha                 90.19818515797144 
_cell_angle_beta                  90.04131274907154 
_cell_angle_gamma                 90.19590152272694 
loop_ 
_atom_site_label 
_atom_site_type_symbol 
_atom_site_fract_x 
_atom_site_fract_y 
_atom_site_fract_z 
_atom_site_charge 
O1          O  0.79962421  0.71559793  0.02661403    -0.81500
C2          C  0.89519500  0.65556529  0.88438072     0.97800
O3          O  0.90375526  0.65211857  0.92783830    -0.70600
O4          O  0.91814837  0.69968328  0.97925920    -0.74200
Al5        Al  0.87404401  0.66795020  0.98354243     1.49000
C6          C  0.91322786  0.72761209  0.98201790     0.93100
O7          O  0.82382055  0.73761635  0.90172442    -0.80500
O8          O  0.73942776  0.66961900  0.93627908    -0.74000
Al9        Al  0.81244300  0.72416627  0.96383633     1.90100
O10         O  0.78449074  0.70159669  0.86751506    -0.73100
O11         O  0.80485547  0.62691194  0.92773268    -0.72900
O12         O  0.85512533  0.66363478  0.86992405    -0.78600
O13         O  0.83935412  0.63241489  0.99498943    -0.76800
O14         O  0.82872606  0.68633125  0.95105506    -1.12900
O15         O  0.85128962  0.68115891  0.04382049    -0.72100
C16         C  0.81896234  0.69893690  0.05646212     0.98600
C17         C  0.80183267  0.72767320  0.86659205     0.95000
Al18       Al  0.79873209  0.66700175  0.90458420     1.55600
O19         O  0.87309220  0.73901676  0.97893329    -0.76800
C20         C  0.81821347  0.61595827  0.96605645     0.99200
C21         C  0.72172203  0.69459055  0.94818247     0.94000
O22         O  0.74693092  0.71790111  0.95236348    -0.82100
O23         O  0.80635187  0.29060254  0.97081301    -0.81500
C24         C  0.88888561  0.34995484  0.12134268     0.97800
O25         O  0.90035203  0.35407222  0.07883866    -0.70600
O26         O  0.91573766  0.30682064  0.02773422    -0.74200
Al27       Al  0.87413978  0.33929878  0.02105330     1.49000
C28         C  0.91073799  0.27887771  0.03028727     0.93100
O29         O  0.80866531  0.26948242  0.09849269    -0.80500
O30         O  0.73619723  0.33957629  0.05826909    -0.74000
Al31       Al  0.80859192  0.28346806  0.03568435     1.90100
O32         O  0.77337677  0.30746549  0.13091834    -0.73100
O33         O  0.80311999  0.38123188  0.07230284    -0.72900
O34         O  0.84728961  0.34311606  0.13308391    -0.78600
O35         O  0.84241891  0.37553944  0.00768780    -0.76800
O36         O  0.82539941  0.32125231  0.04990137    -1.12900
O37         O  0.85664656  0.32729337  0.95908554    -0.72100
C38         C  0.82807979  0.30796824  0.94370370     0.98600
C39         C  0.78636039  0.28056993  0.13224328     0.95000
Al40       Al  0.79307995  0.34113251  0.09435596     1.55600
O41         O  0.87020747  0.26769843  0.03225150    -0.76800
C42         C  0.82023702  0.39209790  0.03545027     0.99200
C43         C  0.71864072  0.31580575  0.04062853     0.94000
O44         O  0.74294049  0.29215659  0.03638348    -0.82100
O45         O  0.28892002  0.21448005  0.02053749    -0.81500
C46         C  0.39269676  0.15092067  0.88434568     0.97800
O47         O  0.40078121  0.14999211  0.92823476    -0.70600
O48         O  0.41190251  0.20131494  0.97093331    -0.74200
Al49       Al  0.37037600  0.16914007  0.98162198     1.49000
C50         C  0.40472146  0.22881786  0.97711452     0.93100
O51         O  0.31781095  0.23458525  0.89540795    -0.80500
O52         O  0.23617008  0.16583674  0.93333097    -0.74000
Al53       Al  0.30453170  0.22235547  0.95782153     1.90100
O54         O  0.28214424  0.19645070  0.86180400    -0.73100
O55         O  0.30297146  0.12408901  0.93169101    -0.72900
O56         O  0.35270336  0.15853735  0.86916836    -0.78600
O57         O  0.33669874  0.13417805  0.99857858    -0.76800
O58         O  0.32392469  0.18475090  0.94762969    -1.12900
O59         O  0.34875867  0.18598492  0.04067910    -0.72100
C60         C  0.31379631  0.20220690  0.05157079     0.98600
C61         C  0.29730164  0.22322587  0.86027285     0.95000
Al62       Al  0.29588734  0.16297676  0.90281793     1.55600
O63         O  0.36363967  0.23904918  0.97602640    -0.76800
C64         C  0.31635450  0.11583392  0.97183536     0.99200
C65         C  0.21687317  0.19065742  0.94284200     0.94000
O66         O  0.24025470  0.21476954  0.94335992    -0.82100
O67         O  0.30340263  0.79146677  0.00265026    -0.81500
C68         C  0.39617264  0.85453464  0.14068433     0.97800
O69         O  0.40404914  0.85803957  0.09697709    -0.70600
O70         O  0.41646884  0.81232945  0.04078985    -0.74200
Al71       Al  0.37159143  0.84356942  0.04167140     1.49000
C72         C  0.41438308  0.78433033  0.04460422     0.93100
O73         O  0.32467940  0.77425311  0.12901075    -0.80500
O74         O  0.23924173  0.83997143  0.09034885    -0.74000
Al75       Al  0.31452482  0.78573241  0.06615829     1.90100
O76         O  0.28371713  0.81009145  0.16042363    -0.73100
O77         O  0.30279418  0.88397799  0.09965030    -0.72900
O78         O  0.35561669  0.84785072  0.15616471    -0.78600
O79         O  0.33716058  0.87939471  0.03273539    -0.76800
O80         O  0.32851165  0.82438990  0.07616758    -1.12900
O81         O  0.34436484  0.83118023  0.98319367    -0.72100
C82         C  0.31618903  0.81020891  0.97235320     0.98600
C83         C  0.30182547  0.78449311  0.16305260     0.95000
Al84       Al  0.29833629  0.84385002  0.12227079     1.55600
O85         O  0.37620730  0.77181763  0.05469075    -0.76800
C86         C  0.31511129  0.89529275  0.06141361     0.99200
C87         C  0.22247980  0.81466909  0.07798781     0.94000
O88         O  0.24838199  0.79161354  0.07483600    -0.82100
O89         O  0.22439944  0.29891922  0.52930946    -0.81500
C90         C  0.14088391  0.35312649  0.37404801     0.97800
O91         O  0.13035002  0.35990985  0.41618175    -0.70600
O92         O  0.10909332  0.31267745  0.46484240    -0.74200
Al93       Al  0.15250110  0.34393635  0.47552308     1.49000
C94         C  0.11293991  0.28532440  0.47436779     0.93100
O95         O  0.20667605  0.27153018  0.40497725    -0.80500
O96         O  0.28940657  0.34041338  0.44283834    -0.74000
Al97       Al  0.21491879  0.28729769  0.46687153     1.90100
O98         O  0.25128536  0.30561154  0.37201173    -0.73100
O99         O  0.22646516  0.38273339  0.42444893    -0.72900
O100        O  0.18159091  0.34353040  0.36462481    -0.78600
O101        O  0.18799877  0.37881678  0.49029909    -0.76800
O102        O  0.20032979  0.32443348  0.44947874    -1.12900
O103        O  0.16610473  0.33068983  0.53931638    -0.72100
C104        C  0.19892491  0.31456336  0.55579056     0.98600
C105        C  0.23146251  0.28020833  0.37093599     0.95000
Al106      Al  0.23439339  0.34179558  0.40472243     1.55600
O107        O  0.15283366  0.27387035  0.48010212    -0.76800
C108        C  0.21140363  0.39431531  0.46186319     0.99200
C109        C  0.30599034  0.31619080  0.45901089     0.94000
O110        O  0.28131874  0.29247358  0.45916096    -0.82100
O111        O  0.25206405  0.70748191  0.49974392    -0.81500
C112        C  0.15758095  0.64741418  0.64554599     0.97800
O113        O  0.14611786  0.64693871  0.60267577    -0.70600
O114        O  0.13134022  0.69695409  0.56016993    -0.74200
Al115      Al  0.17220050  0.66449636  0.54726708     1.49000
C116        C  0.13732962  0.72372787  0.54791837     0.93100
O117        O  0.22749866  0.73276441  0.62327281    -0.80500
O118        O  0.31282528  0.66614037  0.58935166    -0.74000
Al119      Al  0.23871320  0.71855036  0.56162345     1.90100
O120        O  0.26333857  0.69551907  0.65886730    -0.73100
O121        O  0.24924512  0.62249956  0.59132883    -0.72900
O122        O  0.19908698  0.65416333  0.65693301    -0.78600
O123        O  0.20436332  0.62914203  0.53004122    -0.76800
O124        O  0.22135814  0.68113550  0.57627553    -1.12900
O125        O  0.18925648  0.67958087  0.48611143    -0.72100
C126        C  0.22489392  0.69403813  0.47164706     0.98600
C127        C  0.24752414  0.72203779  0.65911768     0.95000
Al128      Al  0.25332680  0.66114110  0.62025170     1.55600
O129        O  0.17844512  0.73367939  0.54335775    -0.76800
C130        C  0.23105982  0.61274618  0.55390008     0.99200
C131        C  0.33010884  0.69149004  0.57930975     0.94000
O132        O  0.30343489  0.71371483  0.57437076    -0.82100
O133        O  0.69908563  0.21898699  0.46749027    -0.81500
C134        C  0.62508307  0.15599903  0.61599778     0.97800
O135        O  0.61110427  0.16528544  0.57657473    -0.70600
O136        O  0.61147990  0.20589161  0.51135176    -0.74200
Al137      Al  0.64470757  0.16973339  0.51948467     1.49000
C138        C  0.61589991  0.23251374  0.52558227     0.93100
O139        O  0.73122286  0.23668204  0.59286009    -0.80500
O140        O  0.78675943  0.17701833  0.57191690    -0.74000
Al141      Al  0.71294887  0.22341659  0.53228677     1.90100
O142        O  0.72303483  0.19764522  0.63792075    -0.73100
O143        O  0.73245278  0.13022042  0.55777126    -0.72900
O144        O  0.66847143  0.15173274  0.62358525    -0.78600
O145        O  0.66542353  0.12923189  0.52101076    -0.76800
O146        O  0.69445469  0.18627033  0.54854659    -1.12900
O147        O  0.67242108  0.17310980  0.45812838    -0.72100
C148        C  0.68721123  0.19757132  0.44091756     0.98600
C149        C  0.73067485  0.22522949  0.63304990     0.95000
Al150      Al  0.72494528  0.16597527  0.59356914     1.55600
O151        O  0.65367274  0.24100143  0.54449982    -0.76800
C152        C  0.70205049  0.11609059  0.53443595     0.99200
C153        C  0.80163321  0.19379147  0.53928841     0.94000
O154        O  0.77406943  0.21101264  0.51780109    -0.82100
O155        O  0.74511204  0.79941670  0.53664474    -0.81500
C156        C  0.66101646  0.85064650  0.37772735     0.97800
O157        O  0.64533240  0.85100265  0.41926389    -0.70600
O158        O  0.62935412  0.80367009  0.46934459    -0.74200
Al159      Al  0.66773514  0.83814506  0.47882334     1.49000
C160        C  0.63748320  0.77707860  0.48125012     0.93100
O161        O  0.73384795  0.76853888  0.41386803    -0.80500
O162        O  0.81142793  0.83910275  0.45105963    -0.74000
Al163      Al  0.73860698  0.78547825  0.47481077     1.90100
O164        O  0.77147436  0.80515498  0.37838551    -0.73100
O165        O  0.74608481  0.88052404  0.43597890    -0.72900
O166        O  0.70386535  0.84491282  0.36995702    -0.78600
O167        O  0.69521754  0.87598348  0.49267573    -0.76800
O168        O  0.72012962  0.82169856  0.45535638    -1.12900
O169        O  0.68183387  0.82768268  0.54277039    -0.72100
C170        C  0.71675624  0.81456920  0.56105162     0.98600
C171        C  0.75606003  0.77842432  0.37875444     0.95000
Al172      Al  0.75523130  0.84082236  0.41263227     1.55600
O173        O  0.67895512  0.76890759  0.48802073    -0.76800
C174        C  0.72290819  0.89193365  0.46909145     0.99200
C175        C  0.82869814  0.81506479  0.46711935     0.94000
O176        O  0.80412584  0.79159754  0.46787098    -0.82100
C177        C  0.67413631  0.03262401  0.51826233    -0.05200
C178        C  0.71843664  0.02083652  0.50596841     0.09000
C179        C  0.75765888  0.04026249  0.50314719    -0.02600
C180        C  0.75257088  0.07138228  0.51203876    -0.00800
C181        C  0.70806160  0.08333850  0.52418134    -0.04500
C182        C  0.66897258  0.06357279  0.52777856     0.02600
C183        C  0.72348758  0.98778565  0.49638277     0.09400
C184        C  0.80338766  0.02804992  0.49143600     0.35300
C185        C  0.62363508  0.07467235  0.54345849     0.38700
C186        C  0.72217301  0.97681958  0.44986178    -0.04800
C187        C  0.72334167  0.94558539  0.44094744     0.02300
C188        C  0.72602790  0.92491191  0.47862873    -0.04400
C189        C  0.72821399  0.93605003  0.52521960    -0.00700
C190        C  0.72700987  0.96732112  0.53396439    -0.03200
C191        C  0.71814074  0.99775985  0.41116421     0.36000
C192        C  0.73193982  0.91542841  0.56434151     0.39700
C193        C  0.71893168  0.93479272  0.39296870     0.38800
C194        C  0.72867784  0.97858405  0.58179519     0.35700
C195        C  0.63377981  0.01269762  0.52148455     0.36400
C196        C  0.79309948  0.09106787  0.50785939     0.39600
N197        N  0.71528600  0.92610364  0.35477838    -0.38400
N198        N  0.71492090  0.01447257  0.38030003    -0.40000
N199        N  0.73474230  0.89910440  0.59574514    -0.37800
N200        N  0.72987023  0.98770681  0.61988194    -0.40100
N201        N  0.83983467  0.01819489  0.48216544    -0.39900
N202        N  0.82541772  0.10680661  0.50467343    -0.37500
N203        N  0.58757777  0.08353402  0.55614137    -0.38600
N204        N  0.60166418  0.99675674  0.52411955    -0.40300
C205        C  0.45559030  0.68255623  0.53369145    -0.05200
C206        C  0.47223038  0.71227088  0.53896076     0.09000
C207        C  0.44572174  0.73319467  0.56484279    -0.02600
C208        C  0.40092777  0.72540564  0.58174926    -0.00800
C209        C  0.38162158  0.69651732  0.57218851    -0.04500
C210        C  0.41058451  0.67450773  0.55090052     0.02600
C211        C  0.51732680  0.72250069  0.51716952     0.09400
C212        C  0.46424547  0.76325669  0.57291881     0.35300
C213        C  0.39374030  0.64394473  0.54493887     0.38700
C214        C  0.51600728  0.74074009  0.47674153    -0.04800
C215        C  0.55613134  0.75726813  0.46314169     0.02300
C216        C  0.59793242  0.75568414  0.49002642    -0.04400
C217        C  0.60033485  0.73497886  0.52788022    -0.00700
C218        C  0.56002144  0.71860204  0.54136648    -0.03200
C219        C  0.47243464  0.74359715  0.45060807     0.36000
C220        C  0.64304868  0.73181736  0.55536574     0.39700
C221        C  0.55408801  0.77613718  0.42171983     0.38800
C222        C  0.56159644  0.69900760  0.58196667     0.35700
C223        C  0.48423652  0.66064224  0.50932909     0.36400
C224        C  0.37494474  0.74750205  0.60887728     0.39600
N225        N  0.55264526  0.79125490  0.38878192    -0.38400
N226        N  0.43756194  0.74586283  0.42994576    -0.40000
N227        N  0.67699356  0.72926118  0.57745462    -0.37800
N228        N  0.56277030  0.68332740  0.61425960    -0.40100
N229        N  0.47909835  0.78717419  0.57904620    -0.39900
N230        N  0.35449256  0.76535548  0.63025658    -0.37500
N231        N  0.38030002  0.61956288  0.54023252    -0.38600
N232        N  0.50723256  0.64314478  0.48994731    -0.40300
C233        C  0.01672736  0.74754811  0.50244429    -0.05200
C234        C  0.01671726  0.77866199  0.51212453     0.09000
C235        C  0.05698050  0.79217476  0.53197626    -0.02600
C236        C  0.09670945  0.77452566  0.54331600    -0.00800
C237        C  0.09581827  0.74290903  0.53610871    -0.04500
C238        C  0.05540045  0.72968327  0.51513352     0.02600
C239        C  0.97146827  0.79553801  0.50699438     0.09400
C240        C  0.05698433  0.82415847  0.54178423     0.32100
C241        C  0.05335477  0.69767147  0.50512076     0.38700
C242        C  0.93434696  0.78818892  0.53747727    -0.04800
C243        C  0.88778313  0.79495532  0.52499599     0.02300
C244        C  0.87812255  0.81276422  0.48472500    -0.04400
C245        C  0.91641097  0.82424431  0.45845067    -0.00700
C246        C  0.96280187  0.81445429  0.46824021    -0.03200
C247        C  0.94398083  0.77132246  0.58006827     0.36000
C248        C  0.90799715  0.84423444  0.41929611     0.39700
C249        C  0.85050376  0.78122400  0.55234102     0.38800
C250        C  0.00103051  0.82218769  0.43688216     0.35700
C251        C  0.97599616  0.73373548  0.48020222     0.36400
C252        C  0.13769996  0.78902348  0.56366564     0.39600
N253        N  0.82249849  0.76899636  0.57479641    -0.38400
N254        N  0.95172209  0.75788536  0.61389710    -0.40000
N255        N  0.90132764  0.86032415  0.38818467    -0.37800
N256        N  0.03157601  0.82821723  0.41173727    -0.40100
N257        N  0.05699190  0.84969104  0.54945362    -0.39900
N258        N  0.17040085  0.80076454  0.57971040    -0.37500
N259        N  0.05148996  0.67224179  0.49678942    -0.38600
N260        N  0.94340262  0.72277653  0.46268917    -0.40300
C261        C  0.50850851  0.26862062  0.47062806    -0.05200
C262        C  0.49718162  0.29064216  0.50426510     0.09000
C263        C  0.52711452  0.29577066  0.54289964    -0.02600
C264        C  0.56709497  0.27755785  0.54946718    -0.00800
C265        C  0.57651406  0.25375319  0.51761376    -0.04500
C266        C  0.54720505  0.24980443  0.47760492     0.02600
C267        C  0.44951236  0.30412478  0.50225045     0.09400
C268        C  0.51569395  0.31917320  0.57649745     0.35300
C269        C  0.55593285  0.22622246  0.44323848     0.38700
C270        C  0.41306929  0.28985223  0.52710627    -0.04800
C271        C  0.36601679  0.29511968  0.51479026     0.02300
C272        C  0.35503820  0.31461440  0.47693458    -0.04400
C273        C  0.39183158  0.33055462  0.45441150    -0.00700
C274        C  0.43891039  0.32568844  0.46783216    -0.03200
C275        C  0.42420612  0.26772596  0.56287183     0.36000
C276        C  0.38216047  0.34952567  0.41428170     0.39700
C277        C  0.32967839  0.27890750  0.54007396     0.38800
C278        C  0.47693868  0.34102055  0.44378262     0.35700
C279        C  0.47928014  0.26463919  0.42917258     0.36400
C280        C  0.59624569  0.28209091  0.59075741     0.39600
N281        N  0.30198327  0.26519456  0.56071159    -0.38400
N282        N  0.43297927  0.25000282  0.59117942    -0.40000
N283        N  0.37454911  0.36453058  0.38205985    -0.37800
N284        N  0.50740352  0.35315256  0.42465029    -0.40100
N285        N  0.50647166  0.33788600  0.60322020    -0.39900
N286        N  0.61936533  0.28561910  0.62380504    -0.37500
N287        N  0.56243168  0.20738306  0.41590618    -0.38600
N288        N  0.45663096  0.26155382  0.39573432    -0.40300
C289        C  0.02836780  0.21864407  0.47534678    -0.05200
C290        C  0.98934787  0.23125132  0.49853476     0.09000
C291        C  0.99050518  0.26159593  0.51275158    -0.02600
C292        C  0.03083180  0.27916731  0.50499818    -0.00800
C293        C  0.06998848  0.26681539  0.48116157    -0.04500
C294        C  0.06830376  0.23651849  0.46581823     0.02600
C295        C  0.94547671  0.21351616  0.50633412     0.09400
C296        C  0.94981949  0.27492787  0.53526458     0.35300
C297        C  0.10676055  0.22396322  0.43872645     0.38700
C298        C  0.93405536  0.20342202  0.55179796    -0.04800
C299        C  0.88750464  0.19469847  0.56244134     0.02300
C300        C  0.85254578  0.19514148  0.52693252    -0.04400
C301        C  0.86607183  0.20149832  0.48005188    -0.00700
C302        C  0.91204496  0.21132920  0.47004798    -0.03200
C303        C  0.96977282  0.20389651  0.58821286     0.36000
C304        C  0.83248637  0.19897784  0.44191228     0.39700
C305        C  0.87521810  0.18789683  0.61066952     0.38800
C306        C  0.92407184  0.22131299  0.42305372     0.35700
C307        C  0.02732023  0.18728915  0.46147480     0.36400
C308        C  0.03234718  0.30955360  0.52372359     0.39600
N309        N  0.86549302  0.18261826  0.64924893    -0.38400
N310        N  0.99845031  0.20428595  0.61705555    -0.40000
N311        N  0.80628696  0.19720308  0.41097467    -0.37800
N312        N  0.93363650  0.22944581  0.38567932    -0.40100
N313        N  0.91756852  0.28582584  0.55311328    -0.39900
N314        N  0.03344625  0.33363174  0.53916049    -0.37500
N315        N  0.13728932  0.21399454  0.41687013    -0.38600
N316        N  0.02656529  0.16222505  0.45058777    -0.40300
C317        C  0.24542988  0.54361414  0.47576792    -0.05200
C318        C  0.23964118  0.52027825  0.50864179     0.09000
C319        C  0.23577401  0.52726508  0.55683345    -0.02600
C320        C  0.23511371  0.55746950  0.57195160    -0.00800
C321        C  0.23875367  0.58104466  0.53884865    -0.04500
C322        C  0.24523922  0.57389513  0.49077549     0.02600
C323        C  0.23319012  0.48842512  0.49264072     0.09400
C324        C  0.23043060  0.50320351  0.59066842     0.35300
C325        C  0.25145486  0.59767321  0.45660251     0.38700
C326        C  0.27219745  0.46925757  0.48702713    -0.04800
C327        C  0.26527179  0.43845699  0.47680919     0.02300
C328        C  0.21929269  0.42677914  0.47148620    -0.04400
C329        C  0.18037403  0.44630516  0.47533605    -0.00700
C330        C  0.18731964  0.47694211  0.48616488    -0.03200
C331        C  0.31936860  0.48121146  0.49257125     0.36000
C332        C  0.13310962  0.43501191  0.46732001     0.39700
C333        C  0.30537934  0.41855997  0.47418025     0.38800
C334        C  0.14721883  0.49675159  0.49131086     0.35700
C335        C  0.25003027  0.53643807  0.42627895     0.36400
C336        C  0.22733345  0.56408932  0.62129343     0.39600
N337        N  0.33762320  0.40282561  0.47269118    -0.38400
N338        N  0.35701194  0.49081090  0.49681664    -0.40000
N339        N  0.09538590  0.42609885  0.46074080    -0.37800
N340        N  0.11545832  0.51270732  0.49559867    -0.40100
N341        N  0.22604865  0.48391565  0.61747475    -0.39900
N342        N  0.22096101  0.56937066  0.66059205    -0.37500
N343        N  0.25628805  0.61664915  0.42932828    -0.38600
N344        N  0.25363169  0.53076093  0.38676532    -0.40300
C345        C  0.55116075  0.87539250  0.31088900    -0.05200
C346        C  0.55627427  0.85996435  0.26795005     0.09000
C347        C  0.59813934  0.84409735  0.25876531    -0.02600
C348        C  0.63336696  0.84183751  0.29366711    -0.00800
C349        C  0.62747214  0.85618273  0.33793709    -0.04500
C350        C  0.58691116  0.87417974  0.34520216     0.02600
C351        C  0.51588975  0.85861382  0.23406422     0.09400
C352        C  0.60432915  0.82952483  0.21353239     0.35300
C353        C  0.58177239  0.89191830  0.38774670     0.38700
C354        C  0.50476291  0.88346058  0.20546470    -0.04800
C355        C  0.46454686  0.88267543  0.17623954     0.02300
C356        C  0.43617238  0.85662188  0.17416714    -0.04400
C357        C  0.44828683  0.83143377  0.20184556    -0.00700
C358        C  0.48746225  0.83263641  0.23214706    -0.03200
C359        C  0.53523471  0.90960475  0.20566381     0.36000
C360        C  0.42290223  0.80331664  0.19708723     0.39700
C361        C  0.45158768  0.90891710  0.14920353     0.38800
C362        C  0.49897365  0.80685834  0.26104325     0.35700
C363        C  0.50811325  0.89175479  0.32035839     0.36400
C364        C  0.67456068  0.82370224  0.28410692     0.39600
N365        N  0.44079417  0.92985342  0.12782711    -0.38400
N366        N  0.55985265  0.93035099  0.20568844    -0.40000
N367        N  0.40456979  0.78017527  0.19401697    -0.37800
N368        N  0.50818144  0.78622043  0.28382426    -0.40100
N369        N  0.60913685  0.81800095  0.17736684    -0.39900
N370        N  0.70742845  0.80931818  0.27610978    -0.37500
N371        N  0.57765765  0.90612030  0.42161111    -0.38600
N372        N  0.47365786  0.90469076  0.32773503    -0.40300
C373        C  0.22827402  0.77968650  0.75630544    -0.05200
C374        C  0.26846353  0.77491354  0.78416798     0.09000
C375        C  0.30221232  0.75350657  0.77064111    -0.02600
C376        C  0.29621542  0.73711210  0.72891749    -0.00800
C377        C  0.25481899  0.74078876  0.70165033    -0.04500
C378        C  0.22068391  0.76206199  0.71582625     0.02600
C379        C  0.27322276  0.78956126  0.83086047     0.09400
C380        C  0.34232786  0.74751493  0.80083030     0.35300
C381        C  0.17626857  0.76440535  0.69108049     0.38700
C382        C  0.24778893  0.77785818  0.86890809    -0.04800
C383        C  0.25868402  0.78703853  0.91483508     0.02300
C384        C  0.29795304  0.80636174  0.92339505    -0.04400
C385        C  0.32108755  0.81970230  0.88443870    -0.00700
C386        C  0.30789288  0.81168529  0.83834026    -0.03200
C387        C  0.21266964  0.75457448  0.86085009     0.36000
C388        C  0.36014533  0.84033959  0.89092732     0.39700
C389        C  0.22977265  0.77552651  0.95281219     0.38800
C390        C  0.33171244  0.82486177  0.79830581     0.35700
C391        C  0.19412057  0.80214126  0.77027855     0.36400
C392        C  0.33324935  0.71666151  0.71439871     0.39600
N393        N  0.20703038  0.76595352  0.98297148    -0.38400
N394        N  0.18517686  0.73583794  0.85397464    -0.40000
N395        N  0.39142507  0.85675796  0.89583011    -0.37800
N396        N  0.35056686  0.83529182  0.76623442    -0.40100
N397        N  0.37404668  0.74268578  0.82513615    -0.39900
N398        N  0.36288477  0.70044300  0.70304409    -0.37500
N399        N  0.14045287  0.76604029  0.67193264    -0.38600
N400        N  0.16698263  0.82008679  0.78148263    -0.40300
C401        C  0.27361964  0.71911116  0.24399928    -0.05200
C402        C  0.27207935  0.73392756  0.28764549     0.09000
C403        C  0.28329255  0.76467906  0.29106070    -0.02600
C404        C  0.29498895  0.78092534  0.25054486    -0.00800
C405        C  0.29487363  0.76649326  0.20614493    -0.04500
C406        C  0.28516987  0.73528401  0.20318006     0.02600
C407        C  0.25812522  0.71750161  0.33066101     0.09400
C408        C  0.28209348  0.77965698  0.33644478     0.35300
C409        C  0.28481856  0.71992597  0.15815851     0.38700
C410        C  0.29295714  0.70486626  0.35948985    -0.04800
C411        C  0.28096997  0.69431371  0.40434346     0.02300
C412        C  0.23434930  0.69719691  0.42095524    -0.04400
C413        C  0.19890888  0.70794232  0.39058828    -0.00700
C414        C  0.21084416  0.71790603  0.34530324    -0.03200
C415        C  0.34158940  0.70454147  0.34405615     0.36000
C416        C  0.15096846  0.71137347  0.40685692     0.39700
C417        C  0.31697445  0.68114595  0.43375217     0.38800
C418        C  0.17509201  0.73050414  0.31482401     0.35700
C419        C  0.26218444  0.68737440  0.24120346     0.36400
C420        C  0.30804657  0.81236921  0.25506070     0.39600
N421        N  0.34594203  0.67051045  0.45676549    -0.38400
N422        N  0.38038665  0.70453397  0.33181331    -0.40000
N423        N  0.11247600  0.71450831  0.41890940    -0.37800
N424        N  0.14664666  0.74063147  0.29054634    -0.40100
N425        N  0.28098379  0.79151172  0.37266080    -0.39900
N426        N  0.31846230  0.83740476  0.25896385    -0.37500
N427        N  0.28451644  0.70757037  0.12232837    -0.38600
N428        N  0.25293666  0.66207277  0.23917010    -0.40300
C429        C  0.26225617  0.03855244  0.99747585    -0.05200
C430        C  0.30125184  0.02298406  0.01622798     0.09000
C431        C  0.34479556  0.03810891  0.02061341    -0.02600
C432        C  0.34944569  0.06831447  0.00628632    -0.00800
C433        C  0.31054736  0.08393828  0.98724130    -0.04500
C434        C  0.26697224  0.06876687  0.98260963     0.02600
C435        C  0.29797199  0.99008990  0.02851490     0.09400
C436        C  0.38540872  0.02219231  0.03864991     0.35300
C437        C  0.22685777  0.08424751  0.96277871     0.38700
C438        C  0.29653038  0.96822396  0.99251247    -0.04800
C439        C  0.29928754  0.93730620  0.00339017     0.02300
C440        C  0.30527531  0.92774039  0.05052672    -0.04400
C441        C  0.30446283  0.94975525  0.08679697    -0.00700
C442        C  0.30033850  0.98062897  0.07575946    -0.03200
C443        C  0.29371235  0.97767906  0.94389077     0.36000
C444        C  0.31003745  0.94106720  0.13554955     0.39700
C445        C  0.29522674  0.91543798  0.96567224     0.38800
C446        C  0.29976300  0.00286784  0.11313527     0.35700
C447        C  0.21728844  0.02333661  0.99316831     0.36400
C448        C  0.39531001  0.08267603  0.00865015     0.39600
N449        N  0.29176497  0.89811264  0.93547647    -0.38400
N450        N  0.29135542  0.98539966  0.90518947    -0.40000
N451        N  0.31446659  0.93411794  0.17444474    -0.37800
N452        N  0.29942123  0.02054239  0.14301763    -0.40100
N453        N  0.41767533  0.00943261  0.05315657    -0.39900
N454        N  0.43196577  0.09400084  0.01029240    -0.37500
N455        N  0.19492094  0.09656162  0.94667897    -0.38600
N456        N  0.18148001  0.01112749  0.98951312    -0.40300
C457        C  0.21310478  0.24126849  0.25355803    -0.05200
C458        C  0.25992503  0.23359871  0.24207166     0.09000
C459        C  0.29598364  0.23804700  0.27546065    -0.02600
C460        C  0.28570781  0.25128377  0.31922923    -0.00800
C461        C  0.23951057  0.26061643  0.32965420    -0.04500
C462        C  0.20286494  0.25466784  0.29746174     0.02600
C463        C  0.27277524  0.22479001  0.19295552     0.09400
C464        C  0.34420274  0.23077406  0.26344713     0.35300
C465        C  0.15526718  0.26396903  0.30845682     0.38700
C466        C  0.28584463  0.24739892  0.16093325    -0.04800
C467        C  0.30112395  0.23968627  0.11550508     0.02300
C468        C  0.30280310  0.20923574  0.10130458    -0.04400
C469        C  0.29086193  0.18648889  0.13365819    -0.00700
C470        C  0.27553196  0.19429426  0.17937857    -0.03200
C471        C  0.28395087  0.27873778  0.17505946     0.36000
C472        C  0.29389838  0.15518753  0.11980984     0.39700
C473        C  0.31691699  0.26316301  0.08388006     0.38800
C474        C  0.26240677  0.17109029  0.21246631     0.35700
C475        C  0.17608900  0.23701499  0.21910621     0.36400
C476        C  0.32282570  0.25585778  0.35348990     0.39600
N477        N  0.32983017  0.28186805  0.05882391    -0.38400
N478        N  0.28239809  0.30368461  0.18645359    -0.40000
N479        N  0.29656170  0.13020099  0.10882790    -0.37800
N480        N  0.25178564  0.15260295  0.23893188    -0.40100
N481        N  0.38264973  0.22520317  0.25346745    -0.39900
N482        N  0.35203950  0.25948981  0.38123488    -0.37500
N483        N  0.11737924  0.27143934  0.31749809    -0.38600
N484        N  0.14658222  0.23376351  0.19151979    -0.40300
C485        C  0.19266762  0.28305901  0.67837676    -0.05200
C486        C  0.23857487  0.28943169  0.69463447     0.09000
C487        C  0.26745348  0.30927667  0.66894820    -0.02600
C488        C  0.25216438  0.32044362  0.62515608    -0.00800
C489        C  0.20776340  0.31197363  0.60697389    -0.04500
C490        C  0.17716552  0.29451065  0.63483470     0.02600
C491        C  0.25733055  0.27381502  0.73733449     0.09400
C492        C  0.31355563  0.31726009  0.68692604     0.35300
C493        C  0.13082288  0.28664799  0.61742780     0.38700
C494        C  0.28229613  0.24661069  0.73244827    -0.04800
C495        C  0.29694446  0.23058387  0.77256918     0.02300
C496        C  0.28753423  0.24188600  0.81801728    -0.04400
C497        C  0.26488632  0.27005206  0.82276397    -0.00700
C498        C  0.24922482  0.28565899  0.78256481    -0.03200
C499        C  0.29242418  0.23486500  0.68600562     0.36000
C500        C  0.25575709  0.28250825  0.86898688     0.39700
C501        C  0.32248400  0.20266479  0.76690771     0.38800
C502        C  0.22359716  0.31358475  0.78762963     0.35700
C503        C  0.16226289  0.26345138  0.70542073     0.36400
C504        C  0.28272901  0.33984188  0.59787833     0.39600
N505        N  0.34296164  0.18047253  0.76201319    -0.38400
N506        N  0.30081114  0.22533352  0.64910604    -0.40000
N507        N  0.24860046  0.29259633  0.90580383    -0.37800
N508        N  0.20292082  0.33578982  0.79152418    -0.40100
N509        N  0.35026812  0.32360069  0.70153123    -0.39900
N510        N  0.30706044  0.35533527  0.57609261    -0.37500
N511        N  0.09367974  0.28024445  0.60409315    -0.38600
N512        N  0.13803257  0.24775298  0.72694943    -0.40300
C513        C  0.45208286  0.12810948  0.76948694    -0.05200
C514        C  0.49687549  0.14138437  0.77459963     0.09000
C515        C  0.50965509  0.15431834  0.81808683    -0.02600
C516        C  0.47698753  0.15539865  0.85554051    -0.00800
C517        C  0.43066058  0.14406631  0.84939099    -0.04500
C518        C  0.41933617  0.12912256  0.80675369     0.02600
C519        C  0.52893555  0.14414960  0.73289020     0.09400
C520        C  0.55580610  0.16793676  0.82337757     0.35300
C521        C  0.37390425  0.11461460  0.80105805     0.38700
C522        C  0.52332109  0.16843145  0.70178830    -0.04800
C523        C  0.55354199  0.17175837  0.66281917     0.02300
C524        C  0.59027508  0.15088356  0.65464873    -0.04400
C525        C  0.59475388  0.12596850  0.68512459    -0.00700
C526        C  0.56436815  0.12273622  0.72416103    -0.03200
C527        C  0.48651587  0.19030882  0.71041997     0.36000
C528        C  0.62942263  0.10296632  0.67529138     0.39700
C529        C  0.54715136  0.19734622  0.63222506     0.38800
C530        C  0.56941037  0.09733116  0.75540813     0.35700
C531        C  0.43909298  0.11447824  0.72497356     0.36400
C532        C  0.49100221  0.16937926  0.89945671     0.39600
N533        N  0.54095635  0.21782954  0.60818703    -0.38400
N534        N  0.45712559  0.20766814  0.71744167    -0.40000
N535        N  0.65693686  0.08460058  0.66703061    -0.37800
N536        N  0.57344135  0.07704366  0.78036566    -0.40100
N537        N  0.59253608  0.17892391  0.82743478    -0.39900
N538        N  0.50316106  0.18036997  0.93432039    -0.37500
N539        N  0.33765860  0.10306576  0.79647821    -0.38600
N540        N  0.42881137  0.10378704  0.68929826    -0.40300
C541        C  0.09407190  0.22127921  0.94539664    -0.05200
C542        C  0.07970685  0.21254152  0.99078214     0.09000
C543        C  0.10747227  0.19247278  0.01701327    -0.02600
C544        C  0.15071139  0.18228769  0.99871288    -0.00800
C545        C  0.16659716  0.19280550  0.95477170    -0.04500
C546        C  0.13753193  0.21155530  0.92753253     0.02600
C547        C  0.03626332  0.22603405  0.01104969     0.09400
C548        C  0.09265439  0.18364370  0.06367539     0.35300
C549        C  0.15319062  0.22167647  0.88170113     0.38700
C550        C  0.99212210  0.21326758  0.00091090    -0.04800
C551        C  0.95061912  0.22953049  0.01005405     0.02300
C552        C  0.95324639  0.25910660  0.02903629    -0.04400
C553        C  0.99785068  0.27045829  0.04335379    -0.00700
C554        C  0.03901691  0.25387078  0.03444377    -0.03200
C555        C  0.98981620  0.18384996  0.97892352     0.36000
C556        C  0.00231177  0.29954254  0.06615988     0.39700
C557        C  0.90587323  0.21620345  0.99679399     0.38800
C558        C  0.08465518  0.26599779  0.04760282     0.35700
C559        C  0.06500726  0.24148836  0.91805700     0.36400
C560        C  0.18022275  0.16251663  0.02622218     0.39600
N561        N  0.87035306  0.20546477  0.98592768    -0.38400
N562        N  0.98827620  0.16037464  0.96140877    -0.40000
N563        N  0.00666709  0.32282902  0.08385110    -0.37800
N564        N  0.12096054  0.27567876  0.05826905    -0.40100
N565        N  0.08093550  0.17676430  0.10104223    -0.39900
N566        N  0.20379897  0.14659035  0.04788626    -0.37500
N567        N  0.16557125  0.22973870  0.84513737    -0.38600
N568        N  0.04172130  0.25765577  0.89649114    -0.40300
C569        C  0.49164283  0.29419537  0.97340963    -0.05200
C570        C  0.52651017  0.28389706  0.00467001     0.09000
C571        C  0.51983419  0.25666541  0.02894359    -0.02600
C572        C  0.47901239  0.23944729  0.02131393    -0.00800
C573        C  0.44512057  0.24881974  0.98806788    -0.04500
C574        C  0.45074576  0.27681106  0.96536135     0.02600
C575        C  0.57326484  0.29911635  0.00789082     0.09400
C576        C  0.55637724  0.24553741  0.05996203     0.35300
C577        C  0.41551290  0.28719942  0.93238698     0.38700
C578        C  0.58493092  0.31708701  0.04711698    -0.04800
C579        C  0.63234663  0.32497572  0.05593078     0.02300
C580        C  0.66835367  0.31426483  0.02593943    -0.04400
C581        C  0.65570952  0.29804692  0.98478664    -0.00700
C582        C  0.60836252  0.29094092  0.97558941    -0.03200
C583        C  0.54837009  0.32578220  0.07987484     0.36000
C584        C  0.69117482  0.28676547  0.95283687     0.39700
C585        C  0.64414562  0.34178385  0.09805052     0.38800
C586        C  0.59591432  0.27318414  0.93445294     0.35700
C587        C  0.49912213  0.32189724  0.94784852     0.36400
C588        C  0.47168518  0.21230042  0.04852746     0.39600
N589        N  0.65354365  0.35516789  0.13170920    -0.38400
N590        N  0.51914936  0.33258188  0.10606124    -0.40000
N591        N  0.71819964  0.27669803  0.92693645    -0.37800
N592        N  0.58574893  0.25902972  0.90179757    -0.40100
N593        N  0.58575981  0.23661935  0.08430058    -0.39900
N594        N  0.46587294  0.19074990  0.07041447    -0.37500
N595        N  0.38725294  0.29551518  0.90625469    -0.38600
N596        N  0.50532624  0.34388838  0.92718065    -0.40300
C597        C  0.97958411  0.32431022  0.21008374    -0.05200
C598        C  0.99916547  0.35191177  0.22483125     0.09000
C599        C  0.98308325  0.37899621  0.20486119    -0.02600
C600        C  0.94642266  0.37856795  0.17141382    -0.00800
C601        C  0.92607905  0.35102139  0.15756744    -0.04500
C602        C  0.94332019  0.32383864  0.17632991     0.02600
C603        C  0.03561387  0.35260449  0.26276246     0.09400
C604        C  0.00459605  0.40724212  0.21866850     0.35300
C605        C  0.92464308  0.29527601  0.15990339     0.38700
C606        C  0.08369759  0.35143892  0.25147253    -0.04800
C607        C  0.11807741  0.35335748  0.28723317     0.02300
C608        C  0.10457535  0.35506537  0.33545261    -0.04400
C609        C  0.05561232  0.35580534  0.34621815    -0.00700
C610        C  0.02167438  0.35465789  0.31002622    -0.03200
C611        C  0.09763798  0.34734569  0.20283148     0.36000
C612        C  0.03902192  0.35698392  0.39434309     0.39700
C613        C  0.16721031  0.35395195  0.27343847     0.38800
C614        C  0.97187695  0.35468954  0.32138173     0.35700
C615        C  0.99715928  0.29640455  0.22937951     0.36400
C616        C  0.92913207  0.40642955  0.15176863     0.39600
N617        N  0.20628974  0.35443520  0.26210733    -0.38400
N618        N  0.10857046  0.34369747  0.16409126    -0.40000
N619        N  0.02509269  0.35802136  0.43248722    -0.37800
N620        N  0.93217127  0.35450708  0.33025877    -0.40100
N621        N  0.02211148  0.42969742  0.22961959    -0.39900
N622        N  0.91520903  0.42868282  0.13624852    -0.37500
N623        N  0.90984680  0.27246549  0.14693101    -0.38600
N624        N  0.01128154  0.27413252  0.24465650    -0.40300
C625        C  0.77696945  0.25210314  0.25760902    -0.05200
C626        C  0.74139994  0.23005421  0.25312303     0.09000
C627        C  0.72406184  0.22257510  0.20810752    -0.02600
C628        C  0.74103771  0.23789900  0.16808366    -0.00800
C629        C  0.77361860  0.26177551  0.17325313    -0.04500
C630        C  0.79141644  0.26882373  0.21826181     0.02600
C631        C  0.71833949  0.21836778  0.29678252     0.09400
C632        C  0.68739789  0.20008188  0.20326961     0.35300
C633        C  0.82292251  0.29412897  0.22492619     0.38700
C634        C  0.69106173  0.23827891  0.32392185    -0.04800
C635        C  0.67890874  0.23090346  0.37034436     0.02300
C636        C  0.69115148  0.20249488  0.38923043    -0.04400
C637        C  0.71278433  0.18101002  0.35963861    -0.00700
C638        C  0.72799502  0.18935453  0.31412203    -0.03200
C639        C  0.67807515  0.26735549  0.30486583     0.36000
C640        C  0.72295159  0.15120287  0.37722855     0.39700
C641        C  0.65584929  0.25350412  0.39899538     0.38800
C642        C  0.75646172  0.16897600  0.28650824     0.35700
C643        C  0.79753951  0.25825086  0.30336741     0.36400
C644        C  0.72279321  0.23037043  0.12190570     0.39600
N645        N  0.63829667  0.27216646  0.42122192    -0.38400
N646        N  0.66797840  0.29052903  0.28967664    -0.40000
N647        N  0.73084180  0.12740505  0.39133867    -0.37800
N648        N  0.77951092  0.15283574  0.26449838    -0.40100
N649        N  0.65811189  0.18212565  0.19941776    -0.39900
N650        N  0.70835961  0.22440398  0.08501081    -0.37500
N651        N  0.84731403  0.31453227  0.23174301    -0.38600
N652        N  0.81391959  0.26297780  0.33987899    -0.40300
C653        C  0.76712574  0.31150848  0.82598218    -0.05200
C654        C  0.78795914  0.28668952  0.80316504     0.09000
C655        C  0.82689072  0.27224906  0.82389831    -0.02600
C656        C  0.84335076  0.28159783  0.86823604    -0.00800
C657        C  0.81984057  0.30455917  0.89283866    -0.04500
C658        C  0.78292583  0.32034309  0.87100104     0.02600
C659        C  0.76838685  0.27473588  0.75805491     0.09400
C660        C  0.84863165  0.24685711  0.80046008     0.35300
C661        C  0.75993038  0.34467083  0.89592521     0.38700
C662        C  0.79155292  0.28076566  0.71535851    -0.04800
C663        C  0.77810745  0.26545617  0.67401780     0.02300
C664        C  0.74095238  0.24418196  0.67502109    -0.04400
C665        C  0.71554542  0.23993046  0.71717689    -0.00700
C666        C  0.72958452  0.25489581  0.75862923    -0.03200
C667        C  0.83034352  0.30200059  0.71450600     0.36000
C668        C  0.67458207  0.22043519  0.71794821     0.39700
C669        C  0.80423065  0.27058263  0.63105770     0.38800
C670        C  0.70504580  0.24899322  0.80229777     0.35700
C671        C  0.72860259  0.32724680  0.80372958     0.36400
C672        C  0.88431265  0.26745653  0.88880789     0.39600
N673        N  0.82464428  0.27456500  0.59652906    -0.38400
N674        N  0.86131599  0.31893826  0.71395969    -0.40000
N675        N  0.64174886  0.20500793  0.71873396    -0.37800
N676        N  0.68520925  0.24404924  0.83687775    -0.40100
N677        N  0.86568131  0.22652985  0.78170844    -0.39900
N678        N  0.91753084  0.25649528  0.90466042    -0.37500
N679        N  0.74172960  0.36400693  0.91611557    -0.38600
N680        N  0.69787041  0.33980949  0.78589464    -0.40300
C681        C  0.09211703  0.64958497  0.76365446    -0.05200
C682        C  0.04689062  0.64000783  0.75015190     0.09000
C683        C  0.03908403  0.62959969  0.70410510    -0.02600
C684        C  0.07599178  0.62975995  0.67090357    -0.00800
C685        C  0.12099475  0.64175098  0.68291903    -0.04500
C686        C  0.12890185  0.65084592  0.73042501     0.02600
C687        C  0.00667843  0.64328055  0.78364445     0.09400
C688        C  0.99233075  0.61965751  0.69054146     0.35300
C689        C  0.17395491  0.66283984  0.74570358     0.38700
C690        C  0.98323184  0.67106405  0.78701708    -0.04800
C691        C  0.94634222  0.67486512  0.81947817     0.02300
C692        C  0.93333367  0.65104944  0.84962681    -0.04400
C693        C  0.95767832  0.62349891  0.84708834    -0.00700
C694        C  0.99352860  0.61940746  0.81338638    -0.03200
C695        C  0.99809909  0.69602314  0.75782209     0.36000
C696        C  0.94614089  0.59948020  0.87940883     0.39700
C697        C  0.92447205  0.70411996  0.82426582     0.38800
C698        C  0.01700138  0.59068507  0.80924421     0.35700
C699        C  0.10020838  0.65921744  0.81179845     0.36400
C700        C  0.06681403  0.61755022  0.62445252     0.39600
N701        N  0.90801945  0.72772986  0.82810295    -0.38400
N702        N  0.01029425  0.71591684  0.73472793    -0.40000
N703        N  0.93726005  0.58050323  0.90565381    -0.37800
N704        N  0.03550494  0.56768386  0.80568554    -0.40100
N705        N  0.95494949  0.61189509  0.67978622    -0.39900
N706        N  0.05927011  0.60779069  0.58746776    -0.37500
N707        N  0.20964039  0.67251023  0.75836148    -0.38600
N708        N  0.10648995  0.66684471  0.85019473    -0.40300
C709        C  0.10548098  0.81679775  0.01343570    -0.05200
C710        C  0.08167966  0.79273707  0.03532572     0.09000
C711        C  0.10182750  0.77881799  0.07491039    -0.02600
C712        C  0.14661469  0.78767799  0.09092061    -0.00800
C713        C  0.17173713  0.81063249  0.06755577    -0.04500
C714        C  0.15045420  0.82582033  0.02962280     0.02600
C715        C  0.03688200  0.78023214  0.01549207     0.09400
C716        C  0.07708524  0.75446400  0.09813136     0.35300
C717        C  0.17605919  0.84931138  0.00534740     0.38700
C718        C  0.03877581  0.75802012  0.98012987    -0.04800
C719        C  0.99823048  0.74135095  0.96818714     0.02300
C720        C  0.95497883  0.74715414  0.99095229    -0.04400
C721        C  0.95261523  0.77066142  0.02463625    -0.00700
C722        C  0.99343590  0.78715076  0.03664496    -0.03200
C723        C  0.08294626  0.75154757  0.95694574     0.36000
C724        C  0.90917381  0.77644099  0.04978706     0.39700
C725        C  0.00179208  0.71769754  0.93322865     0.38800
C726        C  0.99129547  0.81053392  0.07216443     0.35700
C727        C  0.08430579  0.83145883  0.97333976     0.36400
C728        C  0.16729614  0.77262617  0.13102419     0.39600
N729        N  0.00564556  0.69867291  0.90576037    -0.38400
N730        N  0.11776550  0.74613811  0.93781333    -0.40000
N731        N  0.87456323  0.78089312  0.06998349    -0.37800
N732        N  0.98967250  0.82920646  0.10047584    -0.40100
N733        N  0.05726369  0.73507675  0.11657088    -0.39900
N734        N  0.18352478  0.76050314  0.16302407    -0.37500
N735        N  0.19655711  0.86804145  0.98601480    -0.38600
N736        N  0.06731564  0.84309944  0.94127915    -0.40300
C737        C  0.60738201  0.69906950  0.01483160    -0.05200
C738        C  0.58320192  0.72058147  0.98770455     0.09000
C739        C  0.60142943  0.72923353  0.94366323    -0.02600
C740        C  0.64502000  0.71792825  0.92828025    -0.00800
C741        C  0.67081235  0.69809251  0.95695363    -0.04500
C742        C  0.65099032  0.68762406  0.99925968     0.02600
C743        C  0.53942460  0.73510928  0.00605442     0.09400
C744        C  0.57642638  0.75094302  0.91522931     0.35300
C745        C  0.67704728  0.66676853  0.02827286     0.38700
C746        C  0.54262194  0.75995765  0.03681030    -0.04800
C747        C  0.50165898  0.77524359  0.05115863     0.02300
C748        C  0.45697843  0.76592149  0.03463609    -0.04400
C749        C  0.45376055  0.74016736  0.00534004    -0.00700
C750        C  0.49486699  0.72496898  0.99099330    -0.03200
C751        C  0.58824417  0.77042004  0.05290286     0.36000
C752        C  0.40841135  0.72994748  0.98801299     0.39700
C753        C  0.50580640  0.80041976  0.08334916     0.38800
C754        C  0.49159088  0.69931974  0.95961075     0.35700
C755        C  0.58846203  0.68997398  0.05985175     0.36400
C756        C  0.66416619  0.72736753  0.88341780     0.39600
N757        N  0.50989688  0.82048478  0.10897533    -0.38400
N758        N  0.62418885  0.77924660  0.06616456    -0.40000
N759        N  0.37225414  0.72173069  0.97432052    -0.37800
N760        N  0.48917193  0.67891120  0.93441937    -0.40100
N761        N  0.55659358  0.76831942  0.89256002    -0.39900
N762        N  0.67930523  0.73477062  0.84754549    -0.37500
N763        N  0.69794938  0.65015688  0.05137849    -0.38600
N764        N  0.57334885  0.68294758  0.09591663    -0.40300
C765        C  0.81108084  0.53040549  0.95086949    -0.05200
C766        C  0.80816463  0.52073710  0.99789358     0.09000
C767        C  0.80418710  0.54230926  0.03408160    -0.02600
C768        C  0.80460547  0.57333496  0.02345972    -0.00800
C769        C  0.81107460  0.58322005  0.97655752    -0.04500
C770        C  0.81362990  0.56135575  0.94019377     0.02600
C771        C  0.81099056  0.48776817  0.00906694     0.09400
C772        C  0.80013935  0.53252057  0.08242731     0.35300
C773        C  0.82118459  0.57030981  0.89182556     0.38700
C774        C  0.85495580  0.47310430  0.00842129    -0.04800
C775        C  0.85779731  0.44192383  0.01692361     0.02300
C776        C  0.81658461  0.42493941  0.02583329    -0.04400
C777        C  0.77259119  0.43965113  0.02663207    -0.00700
C778        C  0.76988978  0.47096351  0.01858545    -0.03200
C779        C  0.89743213  0.49023087  0.99916898     0.36000
C780        C  0.72988975  0.42237307  0.03370633     0.39700
C781        C  0.90352181  0.42752354  0.01787194     0.38800
C782        C  0.72474681  0.48597353  0.01962985     0.35700
C783        C  0.81145649  0.50826495  0.91335466     0.36400
C784        C  0.79723625  0.59499834  0.06092633     0.39600
N785        N  0.93997091  0.41605616  0.01878924    -0.38400
N786        N  0.93132318  0.50386362  0.99168166    -0.40000
N787        N  0.69577747  0.40853642  0.03898780    -0.37800
N788        N  0.68886629  0.49813352  0.02065891    -0.40100
N789        N  0.79685443  0.52473497  0.12102565    -0.39900
N790        N  0.79109361  0.61230590  0.09069396    -0.37500
N791        N  0.82746981  0.57734130  0.85322860    -0.38600
N792        N  0.81130075  0.49051285  0.88357927    -0.40300
C793        C  0.77993131  0.75019058  0.73986538    -0.05200
C794        C  0.76773638  0.78067937  0.74497101     0.09000
C795        C  0.77027245  0.79456684  0.78937593    -0.02600
C796        C  0.78304463  0.77763424  0.82919337    -0.00800
C797        C  0.79413975  0.74671941  0.82444353    -0.04500
C798        C  0.79380947  0.73338215  0.77919567     0.02600
C799        C  0.75072250  0.79745578  0.70311000     0.09400
C800        C  0.75827707  0.82606436  0.79410990     0.35300
C801        C  0.80817337  0.70238718  0.77261662     0.38700
C802        C  0.70374807  0.79371659  0.68806919    -0.04800
C803        C  0.69051939  0.80261997  0.64253267     0.02300
C804        C  0.72440040  0.81526510  0.61227679    -0.04400
C805        C  0.76933514  0.82290688  0.62983386    -0.00700
C806        C  0.78287804  0.81343638  0.67494386    -0.03200
C807        C  0.67010026  0.77871096  0.71829450     0.36000
C808        C  0.80201085  0.83966491  0.60074585     0.39700
C809        C  0.64317605  0.79675647  0.62577694     0.38800
C810        C  0.83073058  0.81818722  0.69103865     0.35700
C811        C  0.77684889  0.73588243  0.69403780     0.36400
C812        C  0.78204991  0.79180212  0.87513144     0.39600
N813        N  0.60535728  0.79217177  0.61245462    -0.38400
N814        N  0.64339787  0.76666259  0.74247738    -0.40000
N815        N  0.82789950  0.85316834  0.57756349    -0.37800
N816        N  0.86897912  0.82186683  0.70378156    -0.40100
N817        N  0.74873986  0.85121237  0.79774690    -0.39900
N818        N  0.78110558  0.80317778  0.91172652    -0.37500
N819        N  0.81967878  0.67772028  0.76705494    -0.38600
N820        N  0.77390720  0.72449105  0.65755780    -0.40300
C821        C  0.75586480  0.72759412  0.16631737    -0.05200
C822        C  0.78381292  0.71565036  0.20249642     0.09000
C823        C  0.81902245  0.69454444  0.19140526    -0.02600
C824        C  0.82998779  0.68805646  0.14402235    -0.00800
C825        C  0.80396268  0.70160903  0.10706211    -0.04500
C826        C  0.76437080  0.71961846  0.11925709     0.02600
C827        C  0.77911572  0.72782744  0.25139162     0.09400
C828        C  0.84508782  0.68030672  0.22904576     0.35300
C829        C  0.73188355  0.73049944  0.08390574     0.38700
C830        C  0.73766703  0.72299732  0.27770665    -0.04800
C831        C  0.73028480  0.73881386  0.32014163     0.02300
C832        C  0.76518657  0.75879701  0.33733616    -0.04400
C833        C  0.80836424  0.76140345  0.31291400    -0.00700
C834        C  0.81474581  0.74669465  0.26961169    -0.03200
C835        C  0.70185079  0.70257969  0.26008194     0.36000
C836        C  0.84686235  0.77892243  0.33243827     0.39700
C837        C  0.68572154  0.73566795  0.34446757     0.38800
C838        C  0.85746012  0.75197527  0.24288354     0.35700
C839        C  0.71940770  0.74933137  0.17720901     0.36400
C840        C  0.86896728  0.66806909  0.13420460     0.39600
N841        N  0.65015837  0.73318951  0.36385412    -0.38400
N842        N  0.67317727  0.68646442  0.24576879    -0.40000
N843        N  0.87784880  0.79268246  0.34783283    -0.37800
N844        N  0.89154413  0.75610792  0.22163582    -0.40100
N845        N  0.86589100  0.66904989  0.25913248    -0.39900
N846        N  0.90016680  0.65213369  0.12669003    -0.37500
N847        N  0.70614996  0.73929042  0.05568379    -0.38600
N848        N  0.69025157  0.76658917  0.18564040    -0.40300
loop_ 
_geom_bond_atom_site_label_1 
_geom_bond_atom_site_label_2 
_geom_bond_distance 
_geom_bond_site_symmetry_2 
_ccdc_geom_bond_type 
O1           C16   1.258       .  A
O1           Al9   1.865   1_554  S
C2           O12   1.265       .  A
C2            O3   1.271       .  A
C2          C692   1.482       .  S
O3           Al5   1.930       .  S
O4            C6   1.254       .  A
O4           Al5   1.890       .  S
Al5          O13   1.891       .  S
Al5          O15   1.926   1_556  S
Al5          O14   1.788       .  S
C6           O19   1.254       .  A
C6          C720   1.491       .  S
O7           C17   1.258       .  A
O7           Al9   1.897       .  S
O8           C21   1.267       .  A
O8          Al18   1.917       .  S
Al9          O22   1.910       .  S
Al9          O19   1.894       .  S
Al9          O14   1.785       .  S
O10          C17   1.260       .  A
O10         Al18   1.915       .  S
O11          C20   1.256       .  A
O11         Al18   1.913       .  S
O12         Al18   1.890       .  S
O13          C20   1.253       .  A
O14         Al18   1.790       .  S
O15          C16   1.267       .  A
C16         C825   1.507       .  S
C17         C797   1.488       .  S
C20         C769   1.502       .  S
C21          O22   1.265       .  A
C21         C741   1.478       .  S
O23          C38   1.256       .  A
O23         Al31   1.876   1_556  S
C24          O34   1.266       .  A
C24          O25   1.267       .  A
C24         C601   1.477       .  S
O25         Al27   1.919       .  S
O26          C28   1.254       .  A
O26         Al27   1.881       .  S
Al27         O35   1.891       .  S
Al27         O37   1.907   1_554  S
Al27         O36   1.800       .  S
C28          O41   1.255       .  A
C28         C552   1.498       .  S
O29          C39   1.253       .  A
O29         Al31   1.896       .  S
O30          C43   1.270       .  A
O30         Al40   1.917       .  S
Al31         O44   1.908       .  S
Al31         O41   1.892       .  S
Al31         O36   1.792       .  S
O32          C39   1.255       .  A
O32         Al40   1.911       .  S
O33          C42   1.255       .  A
O33         Al40   1.915       .  S
O34         Al40   1.896       .  S
O35          C42   1.251       .  A
O36         Al40   1.797       .  S
O37          C38   1.259       .  A
C38         C657   1.474       .  S
C39         C629   1.483       .  S
C42         C776   1.493       .  S
C43          O44   1.267       .  A
C43         C580   1.491       .  S
O45          C60   1.259       .  A
O45         Al53   1.874   1_554  S
C46          O56   1.264       .  A
C46          O47   1.271       .  A
C46         C517   1.500       .  S
O47         Al49   1.945       .  S
O48          C50   1.254       .  A
O48         Al49   1.879       .  S
Al49         O57   1.889       .  S
Al49         O59   1.940   1_556  S
Al49         O58   1.782       .  S
C50          O63   1.256       .  A
C50         C573   1.483       .  S
O51          C61   1.261       .  A
O51         Al53   1.898       .  S
O52          C65   1.264       .  A
O52         Al62   1.912       .  S
Al53         O66   1.902       .  S
Al53         O63   1.906       .  S
Al53         O58   1.787       .  S
O54          C61   1.267       .  A
O54         Al62   1.937       .  S
O55          C64   1.261       .  A
O55         Al62   1.930       .  S
O56         Al62   1.890       .  S
O57          C64   1.254       .  A
O58         Al62   1.786       .  S
O59          C60   1.269       .  A
C60         C468   1.483       .  S
C61         C496   1.491       .  S
C64         C433   1.496       .  S
C65          O66   1.261       .  A
C65         C545   1.473       .  S
O67          C82   1.255   1_554  A
O67         Al75   1.854       .  S
C68          O78   1.270       .  A
C68          O69   1.275       .  A
C68         C356   1.486       .  S
O69         Al71   1.932       .  S
O70          C72   1.253       .  A
O70         Al71   1.891       .  S
Al71         O79   1.892       .  S
Al71         O81   1.914   1_554  S
Al71         O80   1.787       .  S
C72          O85   1.252       .  A
C72         C748   1.492       .  S
O73          C83   1.253       .  A
O73         Al75   1.885       .  S
O74          C87   1.270       .  A
O74         Al84   1.917       .  S
Al75         O88   1.916       .  S
Al75         O85   1.890       .  S
Al75         O80   1.787       .  S
O76          C83   1.255       .  A
O76         Al84   1.903       .  S
O77          C86   1.251       .  A
O77         Al84   1.905       .  S
O78         Al84   1.900       .  S
O79          C86   1.249       .  A
O80         Al84   1.791       .  S
O81          C82   1.266       .  A
C82         C384   1.496       .  S
C83         C405   1.481       .  S
C86         C440   1.506       .  S
C87          O88   1.268       .  A
C87         C713   1.483       .  S
O89         C104   1.257       .  A
O89         Al97   1.869       .  S
C90         O100   1.264       .  A
C90          O91   1.272       .  A
C90         C608   1.510       .  S
O91         Al93   1.941       .  S
O92          C94   1.254       .  A
O92         Al93   1.881       .  S
Al93        O101   1.895       .  S
Al93        O103   1.951       .  S
Al93        O102   1.777       .  S
C94         O107   1.256       .  A
C94         C293   1.484       .  S
O95         C105   1.260       .  A
O95         Al97   1.909       .  S
O96         C109   1.267       .  A
O96        Al106   1.905       .  S
Al97        O110   1.914       .  S
Al97        O107   1.900       .  S
Al97        O102   1.778       .  S
O98         C105   1.262       .  A
O98        Al106   1.921       .  S
O99         C108   1.258       .  A
O99        Al106   1.920       .  S
O100       Al106   1.888       .  S
O101        C108   1.255       .  A
O102       Al106   1.779       .  S
O103        C104   1.270       .  A
C104        C489   1.484       .  S
C105        C461   1.480       .  S
C108        C328   1.486       .  S
C109        O110   1.266       .  A
C109        C272   1.487       .  S
O111        C126   1.260       .  A
O111       Al119   1.868       .  S
C112        O122   1.259       .  A
C112        O113   1.263       .  A
C112        C685   1.510       .  S
O113       Al115   1.912       .  S
O114        C116   1.254       .  A
O114       Al115   1.893       .  S
Al115       O123   1.887       .  S
Al115       O125   1.930       .  S
Al115       O124   1.781       .  S
C116        O129   1.256       .  A
C116        C237   1.498       .  S
O117        C127   1.264       .  A
O117       Al119   1.892       .  S
O118        C131   1.263       .  A
O118       Al128   1.920       .  S
Al119       O132   1.889       .  S
Al119       O129   1.916       .  S
Al119       O124   1.787       .  S
O120        C127   1.265       .  A
O120       Al128   1.902       .  S
O121        C130   1.259       .  A
O121       Al128   1.908       .  S
O122       Al128   1.889       .  S
O123        C130   1.256       .  A
O124       Al128   1.788       .  S
O125        C126   1.268       .  A
C126        C412   1.476       .  S
C127        C377   1.483       .  S
C130        C321   1.491       .  S
C131        O132   1.257       .  A
C131        C209   1.495       .  S
O133        C148   1.260       .  A
O133       Al141   1.896       .  S
C134        O144   1.267       .  A
C134        O135   1.262       .  A
C134        C524   1.498       .  S
O135       Al137   1.897       .  S
O136        C138   1.257       .  A
O136       Al137   1.884       .  S
Al137       O145   1.900       .  S
Al137       O147   1.923       .  S
Al137       O146   1.793       .  S
C138        O151   1.258       .  A
C138        C265   1.486       .  S
O139        C149   1.255       .  A
O139       Al141   1.893       .  S
O140        C153   1.266       .  A
O140       Al150   1.926       .  S
Al141       O154   1.871       .  S
Al141       O151   1.893       .  S
Al141       O146   1.796       .  S
O142        C149   1.255       .  A
O142       Al150   1.891       .  S
O143        C152   1.256       .  A
O143       Al150   1.900       .  S
O144       Al150   1.926       .  S
O145        C152   1.256       .  A
O146       Al150   1.795       .  S
O147        C148   1.267       .  A
C148        C636   1.493       .  S
C149        C664   1.489       .  S
C152        C181   1.497       .  S
C153        O154   1.258       .  A
C153        C300   1.491       .  S
O155        C170   1.261       .  A
O155       Al163   1.874       .  S
C156        O166   1.265       .  A
C156        O157   1.264       .  A
C156        C349   1.502       .  S
O157       Al159   1.902       .  S
O158        C160   1.255       .  A
O158       Al159   1.899       .  S
Al159       O167   1.895       .  S
Al159       O169   1.923       .  S
Al159       O168   1.791       .  S
C160        O173   1.250       .  A
C160        C216   1.493       .  S
O161        C171   1.263       .  A
O161       Al163   1.894       .  S
O162        C175   1.266       .  A
O162       Al172   1.938       .  S
Al163       O176   1.893       .  S
Al163       O173   1.886       .  S
Al163       O168   1.788       .  S
O164        C171   1.267       .  A
O164       Al172   1.919       .  S
O165        C174   1.257       .  A
O165       Al172   1.905       .  S
O166       Al172   1.909       .  S
O167        C174   1.255       .  A
O168       Al172   1.790       .  S
O169        C170   1.266       .  A
C170        C804   1.475       .  S
C171        C832   1.489       .  S
C174        C188   1.495       .  S
C175        O176   1.255       .  A
C175        C244   1.496       .  S
C177        C178   1.410       .  A
C177        C182   1.412       .  A
C177        C195   1.451       .  S
C178        C183   1.503   1_545  S
C178        C179   1.412       .  A
C179        C180   1.416       .  A
C179        C184   1.450       .  S
C180        C181   1.417       .  A
C180        C196   1.451       .  S
C181        C182   1.419       .  A
C182        C185   1.452       .  S
C183        C186   1.411       .  A
C183        C190   1.412       .  A
C184        N201   1.157       .  T
C185        N203   1.157       .  T
C186        C187   1.413       .  A
C186        C191   1.451       .  S
C187        C188   1.418       .  A
C187        C193   1.452       .  S
C188        C189   1.416       .  A
C189        C190   1.414       .  A
C189        C192   1.450       .  S
C190        C194   1.450       .  S
C191        N198   1.157   1_565  T
C192        N199   1.157       .  T
C193        N197   1.157       .  T
C194        N200   1.157       .  T
C195        N204   1.157   1_545  T
C196        N202   1.158       .  T
C205        C206   1.411       .  A
C205        C210   1.416       .  A
C205        C223   1.449       .  S
C206        C211   1.495       .  S
C206        C207   1.407       .  A
C207        C208   1.405       .  A
C207        C212   1.454       .  S
C208        C209   1.422       .  A
C208        C224   1.453       .  S
C209        C210   1.417       .  A
C210        C213   1.450       .  S
C211        C214   1.412       .  A
C211        C218   1.407       .  A
C212        N229   1.157       .  T
C213        N231   1.157       .  T
C214        C215   1.411       .  A
C214        C219   1.451       .  S
C215        C216   1.415       .  A
C215        C221   1.452       .  S
C216        C217   1.423       .  A
C217        C218   1.411       .  A
C217        C220   1.452       .  S
C218        C222   1.451       .  S
C219        N226   1.158       .  T
C220        N227   1.158       .  T
C221        N225   1.157       .  T
C222        N228   1.157       .  T
C223        N232   1.158       .  T
C224        N230   1.158       .  T
C233        C234   1.412       .  A
C233        C238   1.407       .  A
C233        C251   1.453   1_455  S
C234        C239   1.500   1_455  S
C234        C235   1.409       .  A
C235        C236   1.416       .  A
C235        C240   1.450       .  S
C236        C237   1.422       .  A
C236        C252   1.450       .  S
C237        C238   1.420       .  A
C238        C241   1.454       .  S
C239        C242   1.406       .  A
C239        C246   1.413       .  A
C240        N257   1.157       .  T
C241        N259   1.157       .  T
C242        C243   1.405       .  A
C242        C247   1.455       .  S
C243        C244   1.424       .  A
C243        C249   1.450       .  S
C244        C245   1.416       .  A
C245        C246   1.418       .  A
C245        C248   1.449       .  S
C246        C250   1.449   1_655  S
C247        N254   1.157       .  T
C248        N255   1.157       .  T
C249        N253   1.157       .  T
C250        N256   1.157       .  T
C251        N260   1.158       .  T
C252        N258   1.158       .  T
C261        C262   1.407       .  A
C261        C266   1.400       .  A
C261        C279   1.453       .  S
C262        C267   1.485       .  S
C262        C263   1.408       .  A
C263        C264   1.411       .  A
C263        C268   1.450       .  S
C264        C265   1.419       .  A
C264        C280   1.451       .  S
C265        C266   1.421       .  A
C266        C269   1.455       .  S
C267        C270   1.407       .  A
C267        C274   1.408       .  A
C268        N285   1.157       .  T
C269        N287   1.158       .  T
C270        C271   1.404       .  A
C270        C275   1.455       .  S
C271        C272   1.421       .  A
C271        C277   1.451       .  S
C272        C273   1.417       .  A
C273        C274   1.410       .  A
C273        C276   1.450       .  S
C274        C278   1.450       .  S
C275        N282   1.158       .  T
C276        N283   1.158       .  T
C277        N281   1.157       .  T
C278        N284   1.157       .  T
C279        N288   1.157       .  T
C280        N286   1.157       .  T
C289        C290   1.409   1_455  A
C289        C294   1.411       .  A
C289        C307   1.450       .  S
C290        C295   1.491       .  S
C290        C291   1.409       .  A
C291        C292   1.404   1_655  A
C291        C296   1.451       .  S
C292        C293   1.416       .  A
C292        C308   1.453       .  S
C293        C294   1.417       .  A
C294        C297   1.451       .  S
C295        C298   1.410       .  A
C295        C302   1.406       .  A
C296        N313   1.156       .  T
C297        N315   1.157       .  T
C298        C299   1.412       .  A
C298        C303   1.451       .  S
C299        C300   1.418       .  A
C299        C305   1.450       .  S
C300        C301   1.419       .  A
C301        C302   1.407       .  A
C301        C304   1.449       .  S
C302        C306   1.452       .  S
C303        N310   1.157       .  T
C304        N311   1.156       .  T
C305        N309   1.158       .  T
C306        N312   1.158       .  T
C307        N316   1.157       .  T
C308        N314   1.158       .  T
C317        C318   1.410       .  A
C317        C322   1.413       .  A
C317        C335   1.450       .  S
C318        C323   1.499       .  S
C318        C319   1.410       .  A
C319        C320   1.411       .  A
C319        C324   1.451       .  S
C320        C321   1.417       .  A
C320        C336   1.452       .  S
C321        C322   1.417       .  A
C322        C325   1.451       .  S
C323        C326   1.411       .  A
C323        C330   1.411       .  A
C324        N341   1.157       .  T
C325        N343   1.157       .  T
C326        C327   1.414       .  A
C326        C331   1.450       .  S
C327        C328   1.413       .  A
C327        C333   1.448       .  S
C328        C329   1.414       .  A
C329        C330   1.411       .  A
C329        C332   1.451       .  S
C330        C334   1.451       .  S
C331        N338   1.157       .  T
C332        N339   1.157       .  T
C333        N337   1.156       .  T
C334        N340   1.157       .  T
C335        N344   1.157       .  T
C336        N342   1.157       .  T
C345        C346   1.408       .  A
C345        C350   1.411       .  A
C345        C363   1.452       .  S
C346        C351   1.500       .  S
C346        C347   1.411       .  A
C347        C348   1.415       .  A
C347        C352   1.451       .  S
C348        C349   1.421       .  A
C348        C364   1.450       .  S
C349        C350   1.421       .  A
C350        C353   1.452       .  S
C351        C354   1.413       .  A
C351        C358   1.410       .  A
C352        N369   1.157       .  T
C353        N371   1.158       .  T
C354        C355   1.414       .  A
C354        C359   1.449       .  S
C355        C356   1.412       .  A
C355        C361   1.450       .  S
C356        C357   1.416       .  A
C357        C358   1.409       .  A
C357        C360   1.449       .  S
C358        C362   1.453       .  S
C359        N366   1.157       .  T
C360        N367   1.156       .  T
C361        N365   1.157       .  T
C362        N368   1.157       .  T
C363        N372   1.157       .  T
C364        N370   1.157       .  T
C373        C374   1.408       .  A
C373        C378   1.408       .  A
C373        C391   1.451       .  S
C374        C379   1.485       .  S
C374        C375   1.408       .  A
C375        C376   1.402       .  A
C375        C380   1.454       .  S
C376        C377   1.420       .  A
C376        C392   1.454       .  S
C377        C378   1.416       .  A
C378        C381   1.450       .  S
C379        C382   1.404       .  A
C379        C386   1.407       .  A
C380        N397   1.158       .  T
C381        N399   1.157       .  T
C382        C383   1.403       .  A
C382        C387   1.454       .  S
C383        C384   1.428       .  A
C383        C389   1.453       .  S
C384        C385   1.421       .  A
C385        C386   1.409       .  A
C385        C388   1.450       .  S
C386        C390   1.451       .  S
C387        N394   1.157       .  T
C388        N395   1.157       .  T
C389        N393   1.157       .  T
C390        N396   1.157       .  T
C391        N400   1.157       .  T
C392        N398   1.157       .  T
C401        C402   1.406       .  A
C401        C406   1.408       .  A
C401        C419   1.451       .  S
C402        C407   1.482       .  S
C402        C403   1.408       .  A
C403        C404   1.403       .  A
C403        C408   1.453       .  S
C404        C405   1.416       .  A
C404        C420   1.452       .  S
C405        C406   1.418       .  A
C406        C409   1.451       .  S
C407        C410   1.406       .  A
C407        C414   1.408       .  A
C408        N425   1.157       .  T
C409        N427   1.157       .  T
C410        C411   1.404       .  A
C410        C415   1.451       .  S
C411        C412   1.414       .  A
C411        C417   1.449       .  S
C412        C413   1.413       .  A
C413        C414   1.407       .  A
C413        C416   1.448       .  S
C414        C418   1.452       .  S
C415        N422   1.157       .  T
C416        N423   1.156       .  T
C417        N421   1.156       .  T
C418        N424   1.157       .  T
C419        N428   1.157       .  T
C420        N426   1.157       .  T
C429        C430   1.415   1_556  A
C429        C434   1.418       .  A
C429        C447   1.450       .  S
C430        C435   1.510   1_545  S
C430        C431   1.413       .  A
C431        C432   1.413       .  A
C431        C436   1.452       .  S
C432        C433   1.417   1_554  A
C432        C448   1.452       .  S
C433        C434   1.415       .  A
C434        C437   1.450       .  S
C435        C438   1.412   1_554  A
C435        C442   1.413       .  A
C436        N453   1.158       .  T
C437        N455   1.158       .  T
C438        C439   1.414   1_556  A
C438        C443   1.451       .  S
C439        C440   1.420       .  A
C439        C445   1.451   1_554  S
C440        C441   1.422       .  A
C441        C442   1.416       .  A
C441        C444   1.451       .  S
C442        C446   1.451   1_565  S
C443        N450   1.157       .  T
C444        N451   1.158       .  T
C445        N449   1.157       .  T
C446        N452   1.157       .  T
C447        N456   1.157       .  T
C448        N454   1.157       .  T
C457        C458   1.414       .  A
C457        C462   1.414       .  A
C457        C475   1.450       .  S
C458        C463   1.497       .  S
C458        C459   1.411       .  A
C459        C460   1.408       .  A
C459        C464   1.451       .  S
C460        C461   1.411       .  A
C460        C476   1.450       .  S
C461        C462   1.411       .  A
C462        C465   1.451       .  S
C463        C466   1.410       .  A
C463        C470   1.413       .  A
C464        N481   1.157       .  T
C465        N483   1.158       .  T
C466        C467   1.407       .  A
C466        C471   1.452       .  S
C467        C468   1.414       .  A
C467        C473   1.452       .  S
C468        C469   1.412       .  A
C469        C470   1.416       .  A
C469        C472   1.450       .  S
C470        C474   1.449       .  S
C471        N478   1.157       .  T
C472        N479   1.157       .  T
C473        N477   1.158       .  T
C474        N480   1.157       .  T
C475        N484   1.157       .  T
C476        N482   1.157       .  T
C485        C486   1.412       .  A
C485        C490   1.413       .  A
C485        C503   1.450       .  S
C486        C491   1.501       .  S
C486        C487   1.411       .  A
C487        C488   1.413       .  A
C487        C492   1.450       .  S
C488        C489   1.414       .  A
C488        C504   1.451       .  S
C489        C490   1.411       .  A
C490        C493   1.449       .  S
C491        C494   1.413       .  A
C491        C498   1.409       .  A
C492        N509   1.157       .  T
C493        N511   1.157       .  T
C494        C495   1.412       .  A
C494        C499   1.450       .  S
C495        C496   1.413       .  A
C495        C501   1.450       .  S
C496        C497   1.418       .  A
C497        C498   1.414       .  A
C497        C500   1.450       .  S
C498        C502   1.450       .  S
C499        N506   1.157       .  T
C500        N507   1.158       .  T
C501        N505   1.157       .  T
C502        N508   1.157       .  T
C503        N512   1.157       .  T
C504        N510   1.157       .  T
C513        C514   1.410       .  A
C513        C518   1.413       .  A
C513        C531   1.450       .  S
C514        C519   1.503       .  S
C514        C515   1.411       .  A
C515        C516   1.416       .  A
C515        C520   1.451       .  S
C516        C517   1.420       .  A
C516        C532   1.450       .  S
C517        C518   1.419       .  A
C518        C521   1.451       .  S
C519        C522   1.409       .  A
C519        C526   1.411       .  A
C520        N537   1.157       .  T
C521        N539   1.157       .  T
C522        C523   1.412       .  A
C522        C527   1.453       .  S
C523        C524   1.419       .  A
C523        C529   1.448       .  S
C524        C525   1.417       .  A
C525        C526   1.416       .  A
C525        C528   1.451       .  S
C526        C530   1.449       .  S
C527        N534   1.157       .  T
C528        N535   1.157       .  T
C529        N533   1.156       .  T
C530        N536   1.157       .  T
C531        N540   1.157       .  T
C532        N538   1.157       .  T
C541        C542   1.411       .  A
C541        C546   1.406       .  A
C541        C559   1.452       .  S
C542        C547   1.491   1_556  S
C542        C543   1.410   1_556  A
C543        C544   1.411   1_554  A
C543        C548   1.449       .  S
C544        C545   1.411       .  A
C544        C560   1.450   1_556  S
C545        C546   1.411       .  A
C546        C549   1.452       .  S
C547        C550   1.405   1_455  A
C547        C554   1.407       .  A
C548        N565   1.157       .  T
C549        N567   1.157       .  T
C550        C551   1.411       .  A
C550        C555   1.451   1_554  S
C551        C552   1.423       .  A
C551        C557   1.451   1_554  S
C552        C553   1.423       .  A
C553        C554   1.409   1_655  A
C553        C556   1.452   1_655  S
C554        C558   1.452       .  S
C555        N562   1.157       .  T
C556        N563   1.157       .  T
C557        N561   1.157       .  T
C558        N564   1.157       .  T
C559        N568   1.157       .  T
C560        N566   1.157       .  T
C569        C570   1.411   1_556  A
C569        C574   1.413       .  A
C569        C587   1.449       .  S
C570        C575   1.493       .  S
C570        C571   1.410       .  A
C571        C572   1.405       .  A
C571        C576   1.453       .  S
C572        C573   1.415   1_554  A
C572        C588   1.453       .  S
C573        C574   1.415       .  A
C574        C577   1.451       .  S
C575        C578   1.410       .  A
C575        C582   1.406   1_554  A
C576        N593   1.157       .  T
C577        N595   1.157       .  T
C578        C579   1.414       .  A
C578        C583   1.450       .  S
C579        C580   1.417       .  A
C579        C585   1.450       .  S
C580        C581   1.420   1_554  A
C581        C582   1.406       .  A
C581        C584   1.449       .  S
C582        C586   1.454       .  S
C583        N590   1.157       .  T
C584        N591   1.156       .  T
C585        N589   1.157       .  T
C586        N592   1.157       .  T
C587        N596   1.157       .  T
C588        N594   1.157       .  T
C597        C598   1.410       .  A
C597        C602   1.409       .  A
C597        C615   1.450       .  S
C598        C603   1.497   1_655  S
C598        C599   1.412       .  A
C599        C600   1.412       .  A
C599        C604   1.450   1_655  S
C600        C601   1.409       .  A
C600        C616   1.450       .  S
C601        C602   1.414       .  A
C602        C605   1.452       .  S
C603        C606   1.406       .  A
C603        C610   1.406       .  A
C604        N621   1.157       .  T
C605        N623   1.157       .  T
C606        C607   1.413       .  A
C606        C611   1.452       .  S
C607        C608   1.428       .  A
C607        C613   1.452       .  S
C608        C609   1.426       .  A
C609        C610   1.412       .  A
C609        C612   1.450       .  S
C610        C614   1.453   1_455  S
C611        N618   1.157       .  T
C612        N619   1.157       .  T
C613        N617   1.158       .  T
C614        N620   1.157       .  T
C615        N624   1.157   1_655  T
C616        N622   1.157       .  T
C625        C626   1.413       .  A
C625        C630   1.408       .  A
C625        C643   1.453       .  S
C626        C631   1.500       .  S
C626        C627   1.411       .  A
C627        C628   1.415       .  A
C627        C632   1.449       .  S
C628        C629   1.415       .  A
C628        C644   1.451       .  S
C629        C630   1.412       .  A
C630        C633   1.449       .  S
C631        C634   1.409       .  A
C631        C638   1.412       .  A
C632        N649   1.157       .  T
C633        N651   1.157       .  T
C634        C635   1.406       .  A
C634        C639   1.454       .  S
C635        C636   1.420       .  A
C635        C641   1.452       .  S
C636        C637   1.415       .  A
C637        C638   1.417       .  A
C637        C640   1.450       .  S
C638        C642   1.448       .  S
C639        N646   1.157       .  T
C640        N647   1.157       .  T
C641        N645   1.157       .  T
C642        N648   1.157       .  T
C643        N652   1.157       .  T
C644        N650   1.157       .  T
C653        C654   1.412       .  A
C653        C658   1.412       .  A
C653        C671   1.449       .  S
C654        C659   1.495       .  S
C654        C655   1.412       .  A
C655        C656   1.407       .  A
C655        C660   1.451       .  S
C656        C657   1.408       .  A
C656        C672   1.450       .  S
C657        C658   1.410       .  A
C658        C661   1.451       .  S
C659        C662   1.409       .  A
C659        C666   1.411       .  A
C660        N677   1.157       .  T
C661        N679   1.157       .  T
C662        C663   1.410       .  A
C662        C667   1.451       .  S
C663        C664   1.417       .  A
C663        C669   1.450       .  S
C664        C665   1.414       .  A
C665        C666   1.410       .  A
C665        C668   1.450       .  S
C666        C670   1.451       .  S
C667        N674   1.158       .  T
C668        N675   1.157       .  T
C669        N673   1.156       .  T
C670        N676   1.157       .  T
C671        N680   1.157       .  T
C672        N678   1.157       .  T
C681        C682   1.406       .  A
C681        C686   1.412       .  A
C681        C699   1.453       .  S
C682        C687   1.497       .  S
C682        C683   1.406       .  A
C683        C684   1.413       .  A
C683        C688   1.451   1_455  S
C684        C685   1.426       .  A
C684        C700   1.451       .  S
C685        C686   1.428       .  A
C686        C689   1.452       .  S
C687        C690   1.410   1_455  A
C687        C694   1.411   1_455  A
C688        N705   1.157       .  T
C689        N707   1.158       .  T
C690        C691   1.409       .  A
C690        C695   1.452       .  S
C691        C692   1.415       .  A
C691        C697   1.451       .  S
C692        C693   1.412       .  A
C693        C694   1.412       .  A
C693        C696   1.450       .  S
C694        C698   1.449   1_655  S
C695        N702   1.157   1_655  T
C696        N703   1.157       .  T
C697        N701   1.157       .  T
C698        N704   1.157       .  T
C699        N708   1.157       .  T
C700        N706   1.158       .  T
C709        C710   1.412       .  A
C709        C714   1.415       .  A
C709        C727   1.449   1_554  S
C710        C715   1.498       .  S
C710        C711   1.410       .  A
C711        C712   1.407       .  A
C711        C716   1.452       .  S
C712        C713   1.413       .  A
C712        C728   1.451       .  S
C713        C714   1.413       .  A
C714        C717   1.450       .  S
C715        C718   1.410   1_554  A
C715        C722   1.409   1_455  A
C716        N733   1.157       .  T
C717        N735   1.157   1_554  T
C718        C719   1.410   1_455  A
C718        C723   1.449       .  S
C719        C720   1.415       .  A
C719        C725   1.450   1_655  S
C720        C721   1.419   1_556  A
C721        C722   1.412       .  A
C721        C724   1.452       .  S
C722        C726   1.450       .  S
C723        N730   1.156       .  T
C724        N731   1.158       .  T
C725        N729   1.156       .  T
C726        N732   1.157       .  T
C727        N736   1.157       .  T
C728        N734   1.157       .  T
C737        C738   1.413   1_554  A
C737        C742   1.413   1_554  A
C737        C755   1.449       .  S
C738        C743   1.498   1_556  S
C738        C739   1.412       .  A
C739        C740   1.409       .  A
C739        C744   1.451       .  S
C740        C741   1.412       .  A
C740        C756   1.452       .  S
C741        C742   1.410       .  A
C742        C745   1.450   1_556  S
C743        C746   1.411       .  A
C743        C750   1.410   1_554  A
C744        N761   1.157       .  T
C745        N763   1.157       .  T
C746        C747   1.411       .  A
C746        C751   1.450       .  S
C747        C748   1.415       .  A
C747        C753   1.450       .  S
C748        C749   1.418       .  A
C749        C750   1.413   1_554  A
C749        C752   1.452   1_554  S
C750        C754   1.450       .  S
C751        N758   1.156       .  T
C752        N759   1.157       .  T
C753        N757   1.157       .  T
C754        N760   1.158       .  T
C755        N764   1.157       .  T
C756        N762   1.157       .  T
C765        C766   1.410       .  A
C765        C770   1.414       .  A
C765        C783   1.451       .  S
C766        C771   1.505   1_556  S
C766        C767   1.411   1_556  A
C767        C768   1.415       .  A
C767        C772   1.450       .  S
C768        C769   1.420   1_554  A
C768        C784   1.452       .  S
C769        C770   1.421       .  A
C770        C773   1.451       .  S
C771        C774   1.412       .  A
C771        C778   1.412       .  A
C772        N789   1.157       .  T
C773        N791   1.158       .  T
C774        C775   1.413       .  A
C774        C779   1.451   1_554  S
C775        C776   1.416       .  A
C775        C781   1.452       .  S
C776        C777   1.414       .  A
C777        C778   1.416       .  A
C777        C780   1.450       .  S
C778        C782   1.450       .  S
C779        N786   1.157       .  T
C780        N787   1.157       .  T
C781        N785   1.157       .  T
C782        N788   1.157       .  T
C783        N792   1.157       .  T
C784        N790   1.157       .  T
C793        C794   1.409       .  A
C793        C798   1.406       .  A
C793        C811   1.453       .  S
C794        C799   1.490       .  S
C794        C795   1.407       .  A
C795        C796   1.412       .  A
C795        C800   1.450       .  S
C796        C797   1.419       .  A
C796        C812   1.451       .  S
C797        C798   1.417       .  A
C798        C801   1.452       .  S
C799        C802   1.412       .  A
C799        C806   1.409       .  A
C800        N817   1.157       .  T
C801        N819   1.157       .  T
C802        C803   1.408       .  A
C802        C807   1.450       .  S
C803        C804   1.410       .  A
C803        C809   1.450       .  S
C804        C805   1.412       .  A
C805        C806   1.407       .  A
C805        C808   1.451       .  S
C806        C810   1.450       .  S
C807        N814   1.157       .  T
C808        N815   1.157       .  T
C809        N813   1.157       .  T
C810        N816   1.157       .  T
C811        N820   1.157       .  T
C812        N818   1.157       .  T
C821        C822   1.408       .  A
C821        C826   1.406       .  A
C821        C839   1.454       .  S
C822        C827   1.499       .  S
C822        C823   1.411       .  A
C823        C824   1.414       .  A
C823        C828   1.451       .  S
C824        C825   1.423       .  A
C824        C840   1.451       .  S
C825        C826   1.427       .  A
C826        C829   1.451       .  S
C827        C830   1.413       .  A
C827        C834   1.411       .  A
C828        N845   1.157       .  T
C829        N847   1.157       .  T
C830        C831   1.413       .  A
C830        C835   1.451       .  S
C831        C832   1.417       .  A
C831        C837   1.451       .  S
C832        C833   1.416       .  A
C833        C834   1.406       .  A
C833        C836   1.451       .  S
C834        C838   1.453       .  S
C835        N842   1.157       .  T
C836        N843   1.157       .  T
C837        N841   1.158       .  T
C838        N844   1.157       .  T
C839        N848   1.157       .  T
C840        N846   1.157       .  T
