geometry optimzed in LAMMPS
_audit_creation_date              2020-12-01 
_audit_creation_method            'lammps2cif' 
_symmetry_space_group_name_H-M    'P1' 
_symmetry_Int_Tables_number       1 
_symmetry_cell_setting            triclinic 
loop_ 
_symmetry_equiv_pos_as_xyz 
  x,y,z 
_cell_length_a                    42.05692064 
_cell_length_b                    21.603952769394414 
_cell_length_c                    85.70437094520865 
_cell_angle_alpha                 89.15060554139363 
_cell_angle_beta                  89.36556144430536 
_cell_angle_gamma                 90.17905052426295 
loop_ 
_atom_site_label 
_atom_site_type_symbol 
_atom_site_fract_x 
_atom_site_fract_y 
_atom_site_fract_z 
_atom_site_charge 
O1          O  0.78330837  0.98825819  0.17763823    -0.72100
O2          O  0.69408147  0.02630593  0.17937035    -0.72300
O3          O  0.73885173  0.99636720  0.20031914    -0.72200
O4          O  0.73874498  0.02257656  0.15699368    -0.72200
O5          O  0.72695271  0.40391132  0.15399993    -0.72200
O6          O  0.72385532  0.38320050  0.19840379    -0.72200
O7          O  0.68396235  0.92916802  0.17591149    -0.72100
O8          O  0.76901945  0.37248002  0.17619173    -0.72300
V9          V  0.73859693  0.00653424  0.17853905     1.35200
V10         V  0.72566204  0.39426864  0.17623843     1.35200
C11         C  0.79010737  0.41383895  0.17688562     0.77100
C12         C  0.67378657  0.98326566  0.17757182     0.77200
C13         C  0.72979450  0.42904599  0.20701414     0.77100
C14         C  0.73290444  0.97963343  0.14769950     0.77000
O15         O  0.67635139  0.37788274  0.30246856    -0.72100
O16         O  0.76463452  0.33237263  0.30127700    -0.72300
O17         O  0.71924457  0.33943751  0.32346240    -0.72200
O18         O  0.72112662  0.36637198  0.28032130    -0.72200
O19         O  0.73275534  0.96909920  0.28320239    -0.72200
O20         O  0.73552819  0.43332199  0.32741693    -0.72200
O21         O  0.77681822  0.42958801  0.30339905    -0.72100
O22         O  0.69060314  0.97570646  0.30677691    -0.72300
V23         V  0.72057783  0.35579668  0.30198305     1.35200
V24         V  0.73345285  0.44784064  0.30533400     1.35200
C25         C  0.66875884  0.43385789  0.30490510     0.77100
C26         C  0.78571927  0.37462806  0.30167667     0.77200
C27         C  0.72758438  0.38039357  0.33283867     0.77100
C28         C  0.72642300  0.41886104  0.27432137     0.77000
O29         O  0.93311449  0.28068909  0.17621372    -0.72100
O30         O  0.02315413  0.25170202  0.17875077    -0.72300
O31         O  0.97568856  0.27197327  0.19914474    -0.72200
O32         O  0.98074676  0.25527371  0.15579112    -0.72200
O33         O  0.98821849  0.35420449  0.15265754    -0.72200
O34         O  0.98590087  0.37024767  0.19719862    -0.72200
O35         O  0.03096777  0.35030141  0.17549627    -0.72100
O36         O  0.94311682  0.37889384  0.17424144    -0.72300
V37         V  0.97827399  0.26681422  0.17740410     1.35200
V38         V  0.98680159  0.36153801  0.17493824     1.35200
C39         C  0.92285936  0.33592848  0.17510650     0.77100
C40         C  0.04236847  0.29707114  0.17729365     0.77200
C41         C  0.98045773  0.32268754  0.20573461     0.77100
C42         C  0.98586704  0.30072111  0.14679063     0.77000
O43         O  0.03092186  0.34746800  0.30260375    -0.72100
O44         O  0.94132658  0.38100400  0.30155020    -0.72300
O45         O  0.98507343  0.37098856  0.32384216    -0.72200
O46         O  0.98727954  0.36208506  0.28027217    -0.72200
O47         O  0.97661862  0.26383114  0.28141131    -0.72200
O48         O  0.97550491  0.27258364  0.32607625    -0.72200
O49         O  0.93236181  0.28225326  0.30353487    -0.72100
O50         O  0.01987930  0.24951992  0.30398997    -0.72300
V51         V  0.98602296  0.36346659  0.30211905     1.35200
V52         V  0.97638760  0.26889578  0.30371879     1.35200
C53         C  0.04054750  0.29176959  0.30328958     0.77100
C54         C  0.92160297  0.33633840  0.30252149     0.77200
C55         C  0.97912794  0.32480685  0.33245796     0.77100
C56         C  0.98179549  0.31254800  0.27326819     0.77000
O57         O  0.48867568  0.09560038  0.15139842    -0.72100
O58         O  0.48500516  0.11671419  0.19585804    -0.72300
O59         O  0.52979745  0.08636022  0.17505712    -0.72200
O60         O  0.44407958  0.13164525  0.17237589    -0.72200
O61         O  0.42890328  0.03638998  0.17611008    -0.72200
O62         O  0.51461455  0.47070182  0.17825741    -0.72200
O63         O  0.47228786  0.01975024  0.19830346    -0.72100
O64         O  0.47031792  0.48170097  0.15617602    -0.72300
V65         V  0.48652808  0.10582538  0.17367679     1.35200
V66         V  0.47075452  0.49505474  0.17763967     1.35200
C67         C  0.48183802  0.04295564  0.14582658     0.77100
C68         C  0.47841863  0.07034896  0.20463881     0.77200
C69         C  0.53829733  0.03105104  0.17681766     0.77100
C70         C  0.42184555  0.09324693  0.17440350     0.77000
O71         O  0.53447140  0.09703453  0.30087882    -0.72100
O72         O  0.44783480  0.15124036  0.29928276    -0.72300
O73         O  0.49104498  0.13576319  0.32171946    -0.72200
O74         O  0.49169379  0.11696493  0.27846963    -0.72200
O75         O  0.47568384  0.02183766  0.28090822    -0.72200
O76         O  0.47471738  0.04122645  0.32530150    -0.72200
O77         O  0.43292654  0.05546819  0.30222404    -0.72100
O78         O  0.51762919  0.00270453  0.30397894    -0.72300
V79         V  0.49102711  0.12335568  0.30017740     1.35200
V80         V  0.47565528  0.03205010  0.30307316     1.35200
C81         C  0.54065323  0.03981705  0.30262017     0.77100
C82         C  0.42562997  0.11130595  0.30015382     0.77200
C83         C  0.48231220  0.09317346  0.33096699     0.77100
C84         C  0.48319764  0.06762128  0.27213434     0.77000
O85         O  0.28705141  0.24597562  0.17692605    -0.72100
O86         O  0.19985767  0.29883188  0.17841994    -0.72300
O87         O  0.24299739  0.26384668  0.19935468    -0.72200
O88         O  0.24424872  0.28592124  0.15603181    -0.72200
O89         O  0.22595841  0.19320491  0.15285598    -0.72200
O90         O  0.23034217  0.16686451  0.19711220    -0.72200
O91         O  0.18567141  0.20229588  0.17717727    -0.72100
O92         O  0.27049152  0.15258869  0.17278989    -0.72300
V93         V  0.24334924  0.27181629  0.17761826     1.35200
V94         V  0.22850358  0.18049117  0.17500101     1.35200
C95         C  0.29337816  0.18940668  0.17438667     0.77100
C96         C  0.17796870  0.25810315  0.17850850     0.77200
C97         C  0.23609934  0.21280122  0.20573174     0.77100
C98         C  0.23434466  0.24514246  0.14695916     0.77000
O99         O  0.18205635  0.15912269  0.30093857    -0.72100
O100        O  0.27094027  0.12120092  0.30044585    -0.72300
O101        O  0.22527672  0.12633598  0.32228959    -0.72200
O102        O  0.22777928  0.14925067  0.27905028    -0.72200
O103        O  0.23802790  0.24716327  0.28151803    -0.72200
O104        O  0.23740721  0.22263578  0.32595303    -0.72200
O105        O  0.28123805  0.21887178  0.30306060    -0.72100
O106        O  0.19401379  0.25559181  0.30442434    -0.72300
V107        V  0.22663567  0.14094887  0.30076182     1.35200
V108        V  0.23735118  0.23430811  0.30369614     1.35200
C109        C  0.17300098  0.21462126  0.30278818     0.77100
C110        C  0.29126008  0.16451062  0.30156192     0.77200
C111        C  0.23172204  0.16891818  0.33157949     0.77100
C112        C  0.23402250  0.20080160  0.27279440     0.77000
O113        O  0.18143147  0.38142156  0.80096261    -0.72100
O114        O  0.27065806  0.34504589  0.79875449    -0.72300
O115        O  0.22691038  0.35228307  0.82159070    -0.72200
O116        O  0.22495446  0.36972207  0.77811240    -0.72200
O117        O  0.23917379  0.46610058  0.77958051    -0.72200
O118        O  0.23485201  0.45081962  0.82404277    -0.72200
O119        O  0.28046998  0.44236530  0.80224939    -0.72100
O120        O  0.19352028  0.47894403  0.80138086    -0.72300
V121        V  0.22613884  0.36391600  0.79990671     1.35200
V122        V  0.23669433  0.45773656  0.80178885     1.35200
C123        C  0.17243309  0.43751069  0.80125540     0.77100
C124        C  0.29080018  0.38860770  0.80016089     0.77200
C125        C  0.23104327  0.39774085  0.83034504     0.77100
C126        C  0.23288224  0.41946903  0.77132467     0.77000
O127        O  0.29293686  0.44949077  0.67394731    -0.72100
O128        O  0.20419868  0.48735538  0.67888902    -0.72300
O129        O  0.25200228  0.45918627  0.69791994    -0.72200
O130        O  0.24517432  0.48242453  0.65470728    -0.72200
O131        O  0.23623957  0.38434342  0.65172242    -0.72200
O132        O  0.23723626  0.36326277  0.69604482    -0.72200
O133        O  0.19355080  0.39076285  0.67490031    -0.72100
O134        O  0.28022731  0.35239575  0.67284329    -0.72300
V135        V  0.24844826  0.46783773  0.67626438     1.35200
V136        V  0.23716149  0.37452385  0.67389355     1.35200
C137        C  0.30159370  0.39327741  0.67301865     0.77100
C138        C  0.18372402  0.44417904  0.67786074     0.77200
C139        C  0.24434541  0.40886432  0.70449754     0.77100
C140        C  0.23945688  0.43819962  0.64578208     0.77000
O141        O  0.53655898  0.35104904  0.80070054    -0.72100
O142        O  0.44728216  0.38925731  0.79906190    -0.72300
O143        O  0.49120085  0.38562592  0.82146783    -0.72200
O144        O  0.49264267  0.36001243  0.77824907    -0.72200
O145        O  0.48202887  0.26240475  0.78168941    -0.72200
O146        O  0.47904698  0.28928748  0.82586065    -0.72200
O147        O  0.43710864  0.29172608  0.80266049    -0.72100
O148        O  0.52378940  0.25494941  0.80500261    -0.72300
V149        V  0.49178636  0.36965224  0.79996672     1.35200
V150        V  0.48078497  0.27650371  0.80375284     1.35200
C151        C  0.54511242  0.29509242  0.80282357     0.77100
C152        C  0.42695437  0.34572996  0.80054497     0.77200
C153        C  0.48415368  0.34312383  0.83109602     0.77100
C154        C  0.48755076  0.30783374  0.77244697     0.77000
O155        O  0.44136593  0.25241813  0.67648391    -0.72100
O156        O  0.53016483  0.21250148  0.67850946    -0.72300
O157        O  0.48476352  0.24262811  0.69916585    -0.72200
O158        O  0.48649173  0.21756133  0.65600370    -0.72200
O159        O  0.49833355  0.31395545  0.65162483    -0.72200
O160        O  0.49673467  0.33971457  0.69580592    -0.72200
O161        O  0.54111719  0.30966619  0.67449929    -0.72100
O162        O  0.45433507  0.34862643  0.67271743    -0.72300
V163        V  0.48588460  0.23316397  0.67746153     1.35200
V164        V  0.49737297  0.32613639  0.67373417     1.35200
C165        C  0.43284710  0.30830223  0.67432068     0.77100
C166        C  0.55077188  0.25525127  0.67668345     0.77200
C167        C  0.49055356  0.29445174  0.70500014     0.77100
C168        C  0.49284621  0.26035641  0.64635486     0.77000
O169        O  0.79451273  0.19960921  0.67677576    -0.72100
O170        O  0.70722027  0.24827814  0.67971266    -0.72300
O171        O  0.75271352  0.21640596  0.69997086    -0.72200
O172        O  0.74922566  0.23535973  0.65654868    -0.72200
O173        O  0.73551470  0.13889114  0.65413370    -0.72200
O174        O  0.73738814  0.12046040  0.69853353    -0.72200
O175        O  0.69355986  0.15169816  0.67761824    -0.72100
O176        O  0.77948268  0.10389613  0.67519730    -0.72300
V177        V  0.75072066  0.22297501  0.67820067     1.35200
V178        V  0.73684009  0.13053425  0.67636760     1.35200
C179        C  0.80182687  0.14275481  0.67587082     0.77100
C180        C  0.68555257  0.20736694  0.67919427     0.77200
C181        C  0.74544768  0.16620415  0.70671240     0.77100
C182        C  0.74108450  0.19159880  0.64796557     0.77000
O183        O  0.68401191  0.15606173  0.80339581    -0.72100
O184        O  0.77179239  0.10876954  0.80008223    -0.72300
O185        O  0.72999532  0.12324802  0.82347136    -0.72200
O186        O  0.72529772  0.13702511  0.78005465    -0.72200
O187        O  0.74222969  0.23211604  0.78067131    -0.72200
O188        O  0.74167849  0.22083238  0.82528929    -0.72200
O189        O  0.78489988  0.20520863  0.80246334    -0.72100
O190        O  0.69894674  0.25219077  0.80342970    -0.72300
V191        V  0.72799230  0.13313748  0.80180250     1.35200
V192        V  0.74157250  0.22582520  0.80295550     1.35200
C193        C  0.67667847  0.21312915  0.80369549     0.77100
C194        C  0.79341885  0.14990656  0.80074370     0.77200
C195        C  0.73669477  0.16855368  0.83183293     0.77100
C196        C  0.73384893  0.18543592  0.77287884     0.77000
O197        O  0.94074787  0.99695599  0.67837878    -0.72100
O198        O  0.02781048  0.44319957  0.68144714    -0.72300
O199        O  0.98448054  0.98811352  0.70084258    -0.72200
O200        O  0.98538318  0.44632376  0.65837519    -0.72200
O201        O  0.99682217  0.05930028  0.65318289    -0.72200
O202        O  0.99691815  0.08492608  0.69741346    -0.72200
O203        O  0.04034243  0.05589836  0.67576055    -0.72100
O204        O  0.95354824  0.09341012  0.67473481    -0.72300
V205        V  0.98343850  0.46184425  0.67981333     1.35200
V206        V  0.99660749  0.07153529  0.67533369     1.35200
C207        C  0.93217413  0.05293546  0.67643569     0.77100
C208        C  0.04800982  0.48702073  0.68038270     0.77200
C209        C  0.99086005  0.03968632  0.70664050     0.77100
C210        C  0.99153332  0.00541932  0.64801381     0.77000
O211        O  0.03906406  0.09606083  0.80214397    -0.72100
O212        O  0.95130478  0.14414093  0.79912653    -0.72300
O213        O  0.99428060  0.13915795  0.82197545    -0.72200
O214        O  0.99665058  0.10622676  0.77929065    -0.72200
O215        O  0.98301316  0.01053938  0.78359205    -0.72200
O216        O  0.97862321  0.04564291  0.82740819    -0.72200
O217        O  0.93792670  0.04851768  0.80356071    -0.72100
O218        O  0.02014763  0.48277677  0.80712347    -0.72300
V219        V  0.99507945  0.11956566  0.80076697     1.35200
V220        V  0.98107475  0.02859665  0.80547052     1.35200
C221        C  0.04597769  0.03988871  0.80517374     0.77100
C222        C  0.92957283  0.10336737  0.80076557     0.77200
C223        C  0.98558961  0.09965728  0.83205034     0.77100
C224        C  0.99038855  0.05378107  0.77397652     0.77000
O225        O  0.78928385  0.23806964  0.55206960    -0.72100
O226        O  0.70003262  0.19989874  0.55107376    -0.72300
O227        O  0.74496240  0.22770654  0.52993728    -0.72200
O228        O  0.74467459  0.20535783  0.57319409    -0.72200
O229        O  0.73501323  0.30285498  0.57668838    -0.72200
O230        O  0.73202004  0.32422194  0.53222074    -0.72200
O231        O  0.69002149  0.29696430  0.55484377    -0.72100
O232        O  0.77699144  0.33501626  0.55410106    -0.72300
V233        V  0.74454995  0.21963019  0.55164884     1.35200
V234        V  0.73380841  0.31295341  0.55442359     1.35200
C235        C  0.79815395  0.29415244  0.55316627     0.77100
C236        C  0.67982072  0.24309555  0.55263844     0.77200
C237        C  0.73757535  0.27823455  0.52353770     0.77100
C238        C  0.74038273  0.24931700  0.58238840     0.77000
O239        O  0.68148290  0.32328763  0.42619859    -0.72100
O240        O  0.77040238  0.35795003  0.43010437    -0.72300
O241        O  0.72939468  0.35490001  0.40652152    -0.72200
O242        O  0.72257033  0.33076038  0.44977077    -0.72200
O243        O  0.73599486  0.23446403  0.44757533    -0.72200
O244        O  0.73688656  0.25637923  0.40321784    -0.72200
O245        O  0.78031093  0.26124173  0.42586495    -0.72100
O246        O  0.69273264  0.22572197  0.42489514    -0.72300
V247        V  0.72609079  0.33985309  0.42806885     1.35200
V248        V  0.73622065  0.24623049  0.42542482     1.35200
C249        C  0.67197668  0.26762337  0.42520315     0.77100
C250        C  0.79058697  0.31481976  0.42854524     0.77200
C251        C  0.73418208  0.31054377  0.39749041     0.77100
C252        C  0.72930571  0.27991111  0.45622539     0.77000
O253        O  0.03602603  0.36702281  0.42811357    -0.72100
O254        O  0.94881379  0.31342354  0.43146663    -0.72300
O255        O  0.99168498  0.32565096  0.40823804    -0.72200
O256        O  0.99365453  0.35027786  0.45139594    -0.72200
O257        O  0.97926774  0.44602525  0.44834709    -0.72200
O258        O  0.97445412  0.41895681  0.40441925    -0.72200
O259        O  0.93453296  0.40930827  0.42873552    -0.72100
O260        O  0.01922876  0.46026837  0.42392927    -0.72300
V261        V  0.99230725  0.34086092  0.42973251     1.35200
V262        V  0.97728025  0.43182211  0.42639906     1.35200
C263        C  0.04226994  0.42394250  0.42546504     0.77100
C264        C  0.92677940  0.35351402  0.43073499     0.77200
C265        C  0.98184639  0.36654821  0.39891841     0.77100
C266        C  0.98677884  0.40142534  0.45735562     0.77000
O267        O  0.93736272  0.43730261  0.55435796    -0.72100
O268        O  0.02559105  0.47998543  0.55077296    -0.72300
O269        O  0.97928058  0.45162620  0.53099410    -0.72200
O270        O  0.98360137  0.47011973  0.57432267    -0.72200
O271        O  0.99588290  0.37336933  0.57748184    -0.72200
O272        O  0.99234058  0.35481081  0.53318983    -0.72200
O273        O  0.03724020  0.38286794  0.55361249    -0.72100
O274        O  0.95068005  0.34090298  0.55688061    -0.72300
V275        V  0.98162076  0.45786415  0.55272859     1.35200
V276        V  0.99368331  0.36480214  0.55529280     1.35200
C277        C  0.92906762  0.38083960  0.55563588     0.77100
C278        C  0.04649095  0.43775249  0.55137310     0.77200
C279        C  0.98564902  0.40114937  0.52458191     0.77100
C280        C  0.99119136  0.42624893  0.58334033     0.77000
O281        O  0.17561994  0.09217153  0.42660741    -0.72100
O282        O  0.26244684  0.14679042  0.42953970    -0.72300
O283        O  0.22021265  0.13702920  0.40644668    -0.72200
O284        O  0.21739051  0.10665669  0.44957011    -0.72200
O285        O  0.23320734  0.01206798  0.44633037    -0.72200
O286        O  0.23703942  0.04395375  0.40232456    -0.72200
O287        O  0.27744720  0.05173193  0.42614511    -0.72100
O288        O  0.19280848  0.99930057  0.42253869    -0.72300
V289        V  0.21915818  0.11887938  0.42791756     1.35200
V290        V  0.23469262  0.02857326  0.42435414     1.35200
C291        C  0.16965240  0.03514011  0.42448835     0.77100
C292        C  0.28462807  0.10707120  0.42875776     0.77200
C293        C  0.22970441  0.09705517  0.39695921     0.77100
C294        C  0.22515021  0.05531598  0.45541662     0.77000
O295        O  0.28934553  0.00030609  0.55024210    -0.72100
O296        O  0.20351229  0.43863876  0.54691733    -0.72300
O297        O  0.24625028  0.99120613  0.52765453    -0.72200
O298        O  0.24599557  0.44492202  0.56982908    -0.72200
O299        O  0.23269850  0.05401389  0.57536080    -0.72200
O300        O  0.23102143  0.08590582  0.53126793    -0.72200
O301        O  0.18897295  0.04950547  0.55306095    -0.72100
O302        O  0.27482596  0.09528027  0.55369948    -0.72300
V303        V  0.24747295  0.46146565  0.54834813     1.35200
V304        V  0.23223151  0.06940697  0.55328113     1.35200
C305        C  0.29692649  0.05670535  0.55212013     0.77100
C306        C  0.18242889  0.48000011  0.54872658     0.77200
C307        C  0.23838895  0.04278561  0.52199913     0.77100
C308        C  0.23984929  0.48717780  0.57927799     0.77000
O309        O  0.43407107  0.20802796  0.55126278    -0.72100
O310        O  0.52252121  0.25318754  0.54964006    -0.72300
O311        O  0.47768677  0.22604455  0.52874212    -0.72200
O312        O  0.47837987  0.24024365  0.57205698    -0.72200
O313        O  0.49369371  0.14509828  0.57491461    -0.72200
O314        O  0.48873169  0.12808118  0.53048148    -0.72200
O315        O  0.53422979  0.15546177  0.55077408    -0.72100
O316        O  0.44826370  0.11238952  0.55461495    -0.72300
V317        V  0.47837355  0.23000757  0.55047847     1.35200
V318        V  0.49089404  0.13704463  0.55267240     1.35200
C319        C  0.42634585  0.15141310  0.55313230     0.77100
C320        C  0.54342513  0.21077417  0.54990014     0.77200
C321        C  0.48245248  0.17546311  0.52211824     0.77100
C322        C  0.48730099  0.19708321  0.58094199     0.77000
O323        O  0.52934175  0.13536561  0.42538297    -0.72100
O324        O  0.43974348  0.10194665  0.42867026    -0.72300
O325        O  0.48280098  0.10735932  0.40536608    -0.72200
O326        O  0.48688379  0.12549851  0.44863247    -0.72200
O327        O  0.47567905  0.22330115  0.44652835    -0.72200
O328        O  0.47429243  0.20585926  0.40216290    -0.72200
O329        O  0.43096667  0.20014421  0.42522955    -0.72100
O330        O  0.51863388  0.23314907  0.42328398    -0.72300
V331        V  0.48447203  0.11941750  0.42694650     1.35200
V332        V  0.47507059  0.21372474  0.42435554     1.35200
C333        C  0.53915381  0.19092572  0.42401018     0.77100
C334        C  0.42012420  0.14626019  0.42721391     0.77200
C335        C  0.47844836  0.15279205  0.39633048     0.77100
C336        C  0.48223755  0.17658926  0.45505216     0.77000
O337        O  0.17351519  0.35927966  0.92557142    -0.72100
O338        O  0.26150311  0.40284605  0.92883432    -0.72300
O339        O  0.22015612  0.39185099  0.90551636    -0.72200
O340        O  0.21431390  0.37430112  0.94894027    -0.72200
O341        O  0.22906562  0.27818622  0.94765964    -0.72200
O342        O  0.23180204  0.29474770  0.90317451    -0.72200
O343        O  0.27346433  0.30596901  0.92626864    -0.72100
O344        O  0.18725311  0.26268131  0.92442804    -0.72300
V345        V  0.21758824  0.38019449  0.92717595     1.35200
V346        V  0.23004703  0.28718826  0.92542527     1.35200
C347        C  0.16562793  0.30275889  0.92441635     0.77100
C348        C  0.28254705  0.36093734  0.92797187     0.77200
C349        C  0.22684653  0.34723831  0.89682452     0.77100
C350        C  0.22139975  0.32453941  0.95579719     0.77000
O351        O  0.28276315  0.29551531  0.05167966    -0.72100
O352        O  0.19336945  0.26101784  0.04930777    -0.72300
O353        O  0.24043084  0.28610847  0.02884768    -0.72200
O354        O  0.23604902  0.26573989  0.07215216    -0.72200
O355        O  0.22963014  0.36442819  0.07516623    -0.72200
O356        O  0.22590679  0.38219735  0.03061230    -0.72200
O357        O  0.18413659  0.35800026  0.05365862    -0.72100
O358        O  0.27148426  0.39351632  0.05202951    -0.72300
V359        V  0.23799316  0.27892753  0.05056762     1.35200
V360        V  0.22808116  0.37280562  0.05285140     1.35200
C361        C  0.29210536  0.35151331  0.05163097     0.77100
C362        C  0.17351010  0.30451558  0.05136463     0.77200
C363        C  0.23303493  0.33615791  0.02223153     0.77100
C364        C  0.23234102  0.31055550  0.08116262     0.77000
O365        O  0.67226760  0.11346228  0.92750638    -0.72100
O366        O  0.76012013  0.16198261  0.92983978    -0.72300
O367        O  0.71709440  0.15506058  0.90710721    -0.72200
O368        O  0.71517366  0.12545213  0.95010748    -0.72200
O369        O  0.73069661  0.03073003  0.94702840    -0.72200
O370        O  0.73062651  0.06008852  0.90286847    -0.72200
O371        O  0.77315031  0.06668816  0.92557405    -0.72100
O372        O  0.68762516  0.01890174  0.92428062    -0.72300
V373        V  0.71630859  0.13713655  0.92852889     1.35200
V374        V  0.73005740  0.04584189  0.92496960     1.35200
C375        C  0.66514497  0.05670327  0.92583350     0.77100
C376        C  0.78165073  0.12130179  0.92821877     0.77200
C377        C  0.72489967  0.11415328  0.89757791     0.77100
C378        C  0.72391266  0.07494603  0.95606116     0.77000
O379        O  0.72686169  0.09529364  0.07598693    -0.72100
O380        O  0.72844403  0.11624685  0.03156969    -0.72300
O381        O  0.68480261  0.08522005  0.05311041    -0.72200
O382        O  0.77035583  0.13185281  0.05453716    -0.72200
O383        O  0.78568459  0.03705092  0.05169674    -0.72200
O384        O  0.69860725  0.47365422  0.05112865    -0.72200
O385        O  0.74204216  0.01990704  0.02957168    -0.72100
O386        O  0.74139208  0.00016396  0.07287342    -0.72300
V387        V  0.72798954  0.10529114  0.05375164     1.35200
V388        V  0.74140069  0.01317433  0.05129380     1.35200
C389        C  0.73345649  0.04277374  0.08193101     0.77100
C390        C  0.73500435  0.07030655  0.02304134     0.77200
C391        C  0.67596781  0.03000982  0.05183440     0.77100
C392        C  0.79278687  0.09411965  0.05304360     0.77000
O393        O  0.52810131  0.40191399  0.92754891    -0.72100
O394        O  0.43956491  0.35878630  0.92815852    -0.78700
O395        O  0.48547999  0.36715007  0.90619290    -0.72200
O396        O  0.48256999  0.38841911  0.94938938    -0.72200
O397        O  0.47103523  0.48579067  0.94640828    -0.72200
O398        O  0.47234411  0.46274707  0.90197589    -0.72200
O399        O  0.42835073  0.45592133  0.92494744    -0.72100
O400        O  0.51480271  0.49762312  0.92352266    -0.72300
V401        V  0.48373326  0.38095773  0.92769814     1.35200
V402        V  0.47192561  0.47371508  0.92424478     1.35200
C403        C  0.53633458  0.45819948  0.92561619     0.77100
C404        C  0.41880958  0.40121047  0.92705627     0.77200
C405        C  0.47914072  0.40977634  0.89658391     0.77100
C406        C  0.47584485  0.43944744  0.95537879     0.77000
O407        O  0.43296001  0.48325862  0.05024180    -0.72100
O408        O  0.52204772  0.52174780  0.04976908    -0.72300
O409        O  0.47862250  0.49498230  0.02828446    -0.72200
O410        O  0.47632879  0.51477898  0.07156101    -0.72200
O411        O  0.48904420  0.41837240  0.07530772    -0.72200
O412        O  0.48764678  0.39646907  0.03100335    -0.72200
O413        O  0.53205476  0.42334699  0.05185889    -0.72100
O414        O  0.44486538  0.38686308  0.05449800    -0.72300
V415        V  0.47763232  0.50176762  0.05002187     1.35200
V416        V  0.48813695  0.40808727  0.05312453     1.35200
C417        C  0.42393581  0.42769927  0.05268610     0.77100
C418        C  0.54211058  0.47801474  0.05050057     0.77200
C419        C  0.48388877  0.44350948  0.02215826     0.77100
C420        C  0.48312472  0.47141838  0.08084238     0.77000
O421        O  0.02706164  0.16328986  0.92567570    -0.72100
O422        O  0.93879950  0.12168066  0.93031181    -0.72300
O423        O  0.98048721  0.12587596  0.90654866    -0.72200
O424        O  0.98579772  0.15438246  0.94939419    -0.72200
O425        O  0.97021060  0.24938311  0.94612406    -0.72200
O426        O  0.97095429  0.22312449  0.90192271    -0.72200
O427        O  0.92710511  0.21714038  0.92490850    -0.72100
O428        O  0.01350615  0.25981662  0.92319024    -0.72300
V429        V  0.98279650  0.14312888  0.92786824     1.35200
V430        V  0.97068755  0.23557558  0.92406713     1.35200
C431        C  0.03505758  0.21990120  0.92437403     0.77100
C432        C  0.91782927  0.16310190  0.92825769     0.77200
C433        C  0.97509329  0.16868181  0.89686477     0.77100
C434        C  0.97879960  0.20565683  0.95520076     0.77000
O435        O  0.92903893  0.24615055  0.05142127    -0.72100
O436        O  0.01608885  0.30150813  0.04871159    -0.72300
O437        O  0.97166331  0.26578839  0.02851249    -0.72200
O438        O  0.97278767  0.28739959  0.07158433    -0.72200
O439        O  0.99021195  0.19431254  0.07545020    -0.72200
O440        O  0.98619370  0.16998775  0.03110535    -0.72200
O441        O  0.03067624  0.20555053  0.05109821    -0.72100
O442        O  0.94608502  0.15296945  0.05541724    -0.72300
V443        V  0.97266148  0.27337178  0.05015282     1.35200
V444        V  0.98794540  0.18246383  0.05324337     1.35200
C445        C  0.92294043  0.18886438  0.05367607     0.77100
C446        C  0.03817623  0.26144784  0.04916700     0.77200
C447        C  0.97819027  0.21516491  0.02231694     0.77100
C448        C  0.98208452  0.24641703  0.08097547     0.77000
C449        C  0.00067199  0.17735680  0.99742805    -0.26700
C450        C  0.97730425  0.21155914  0.00515557    -0.14700
C451        C  0.95519961  0.24658917  0.99624395     0.35900
C452        C  0.95687958  0.24611993  0.97996651    -0.26100
C453        C  0.98015864  0.21174238  0.97226936    -0.15300
C454        C  0.00263329  0.17770334  0.98106830     0.37000
N455        N  0.02757813  0.14413003  0.97333749    -0.89600
H456        H  0.01805127  0.15184952  0.00417653     0.18100
H457        H  0.93930254  0.27144809  0.97329547     0.18100
N458        N  0.93007657  0.28145370  0.00331583    -0.88600
H459        H  0.04202048  0.12155428  0.98146720     0.35500
H460        H  0.04202168  0.17646918  0.96742702     0.40600
H461        H  0.93979480  0.31833405  0.00941250     0.40200
H462        H  0.91735177  0.25248105  0.01103546     0.35100
C463        C  0.49202690  0.49020595  0.97957359    -0.26700
C464        C  0.47488825  0.44293280  0.97250903    -0.14700
C465        C  0.46191286  0.39396422  0.98188066     0.35900
C466        C  0.46743598  0.39286249  0.99796054    -0.26100
C467        C  0.48453020  0.44021539  0.00502243    -0.15300
C468        C  0.49777850  0.48880785  0.99563291     0.37000
N469        N  0.51795096  0.53630769  0.00183822    -0.89600
H470        H  0.50274001  0.52663368  0.97241753     0.18100
H471        H  0.45682053  0.35629628  0.00510715     0.18100
N472        N  0.44244379  0.34549049  0.97561682    -0.88600
H473        H  0.53933030  0.53591223  0.99549075     0.35500
H474        H  0.52458894  0.52594286  0.01326409     0.40600
H475        H  0.43628785  0.35491936  0.96407623     0.40200
H476        H  0.42080753  0.34539586  0.98174958     0.35100
C477        C  0.63051829  0.45743799  0.04339884    -0.26700
C478        C  0.64299918  0.50216926  0.05330529    -0.14700
C479        C  0.61997124  0.05667531  0.05969297     0.35900
C480        C  0.58906323  0.53327802  0.06030666    -0.26100
C481        C  0.57663982  0.48895041  0.05036387    -0.15300
C482        C  0.59743803  0.45039875  0.04184295     0.37000
N483        N  0.58481045  0.40487406  0.03150075    -0.89600
H484        H  0.64654621  0.42927474  0.03654336     0.18100
H485        H  0.57082401  0.07954377  0.06410865     0.18100
N486        N  0.63185189  0.10205699  0.07029915    -0.88600
H487        H  0.60320288  0.38043728  0.02609684     0.35500
H488        H  0.57273271  0.42847141  0.02263672     0.40600
H489        H  0.64298253  0.07825074  0.07942998     0.40200
H490        H  0.61318451  0.12702110  0.07530643     0.35100
C491        C  0.85149032  0.07738080  0.05515797    -0.26700
C492        C  0.82612183  0.11814081  0.05289983    -0.14700
C493        C  0.83283962  0.18238947  0.05086155     0.35900
C494        C  0.86438428  0.20391028  0.05154793    -0.26100
C495        C  0.88983192  0.16328083  0.05385652    -0.15300
C496        C  0.88297653  0.09873070  0.05562422     0.37000
N497        N  0.90720320  0.05308997  0.05787418    -0.89600
H498        H  0.84686901  0.02827209  0.05669475     0.18100
H499        H  0.86910600  0.25294815  0.04998256     0.18100
N500        N  0.80773374  0.22590323  0.04785187    -0.88600
H501        H  0.91965041  0.06298501  0.06802888     0.35500
H502        H  0.92260367  0.05381717  0.04821547     0.40600
H503        H  0.79857767  0.21611538  0.03686246     0.40200
H504        H  0.81656156  0.27117521  0.04714358     0.35100
C505        C  0.83704453  0.08326879  0.93016482    -0.26700
C506        C  0.81621779  0.13425009  0.92934322    -0.14700
C507        C  0.82905284  0.19452416  0.92918614     0.35900
C508        C  0.86226064  0.20213656  0.92939316    -0.26100
C509        C  0.88310383  0.15095808  0.92952051    -0.15300
C510        C  0.86998981  0.09077085  0.93018979     0.37000
N511        N  0.88922367  0.03617469  0.93054732    -0.89600
H512        H  0.82773574  0.03643462  0.93055568     0.18100
H513        H  0.87187396  0.24871833  0.92910435     0.18100
N514        N  0.80860747  0.24768281  0.92852724    -0.88600
H515        H  0.90334802  0.03690757  0.94050263     0.35500
H516        H  0.90371415  0.03585825  0.92056198     0.40600
H517        H  0.79761006  0.24796376  0.91765126     0.40200
H518        H  0.82191748  0.28859201  0.92898934     0.35100
C519        C  0.62691462  0.46343889  0.92629595    -0.26700
C520        C  0.63187454  0.03232554  0.92587696    -0.14700
C521        C  0.60466688  0.07045038  0.92528769     0.35900
C522        C  0.57571701  0.54414899  0.92669175    -0.26100
C523        C  0.56988157  0.47988917  0.92601471    -0.15300
C524        C  0.59592430  0.43909227  0.92582544     0.37000
N525        N  0.59102506  0.37331313  0.92503540    -0.89600
H526        H  0.64665566  0.43137666  0.92614534     0.18100
H527        H  0.55606008  0.57643333  0.92697735     0.18100
N528        N  0.60678362  0.13662567  0.92472747    -0.88600
H529        H  0.61270720  0.34981695  0.92547972     0.35500
H530        H  0.58134958  0.36404976  0.91412802     0.40600
H531        H  0.62028469  0.14996770  0.91492496     0.40200
H532        H  0.61802685  0.15166810  0.93481140     0.35100
C533        C  0.72912319  0.12765990  0.98125819    -0.26700
C534        C  0.72729692  0.07142523  0.97315960    -0.14700
C535        C  0.72944388  0.01505914  0.98147964     0.35900
C536        C  0.73262299  0.01631323  0.99774078    -0.26100
C537        C  0.73361237  0.07267279  0.00585599    -0.15300
C538        C  0.73254291  0.12893784  0.99745913     0.37000
N539        N  0.73521234  0.18705985  0.00531406    -0.89600
H540        H  0.72833683  0.17132148  0.97489539     0.18100
H541        H  0.73361214  0.97272835  0.00412966     0.18100
N542        N  0.72795643  0.95701502  0.97351946    -0.88600
H543        H  0.73341182  0.22412996  0.99739495     0.35500
H544        H  0.75805172  0.18939128  0.00997971     0.40600
H545        H  0.70517847  0.95297186  0.96886830     0.40200
H546        H  0.73369254  0.40924817  0.98197636     0.35100
C547        C  0.12669039  0.24492269  0.04236262    -0.26700
C548        C  0.13864325  0.29485173  0.05072957    -0.14700
C549        C  0.11702272  0.33711979  0.05764344     0.35900
C550        C  0.08407881  0.32811869  0.05602341    -0.26100
C551        C  0.07231408  0.27712352  0.04804109    -0.15300
C552        C  0.09387346  0.23580898  0.04094199     0.37000
N553        N  0.08245130  0.18444503  0.03218912    -0.89600
H554        H  0.14286162  0.21298842  0.03675832     0.18100
H555        H  0.06754978  0.35909995  0.06171754     0.18100
N556        N  0.12846647  0.38800597  0.06667110    -0.88600
H557        H  0.09145232  0.14380485  0.03720265     0.35500
H558        H  0.09158113  0.18850053  0.02082023     0.40600
H559        H  0.13954306  0.36937261  0.07653712     0.40200
H560        H  0.10956538  0.41486438  0.07074550     0.35100
C561        C  0.34788549  0.33527750  0.06003254    -0.26700
C562        C  0.32606228  0.36927215  0.05122680    -0.14700
C563        C  0.33632278  0.42330349  0.04305836     0.35900
C564        C  0.36810460  0.44285620  0.04415380    -0.26100
C565        C  0.38998409  0.40909304  0.05302435    -0.15300
C566        C  0.37966157  0.35491224  0.06119034     0.37000
N567        N  0.40130993  0.32057040  0.07086196    -0.89600
H568        H  0.33984935  0.29446999  0.06646021     0.18100
H569        H  0.37602626  0.48367295  0.03769869     0.18100
N570        N  0.31450679  0.45756212  0.03345949    -0.88600
H571        H  0.39003500  0.28190039  0.07592870     0.35500
H572        H  0.40786654  0.34914091  0.08003799     0.40600
H573        H  0.30767135  0.42882817  0.02436465     0.40200
H574        H  0.32575109  0.49603635  0.02828083     0.35100
C575        C  0.33784953  0.32259768  0.93050376    -0.26700
C576        C  0.31717770  0.37345337  0.92873123    -0.14700
C577        C  0.33015266  0.43341810  0.92719359     0.35900
C578        C  0.36332504  0.44076626  0.92701223    -0.26100
C579        C  0.38403593  0.38963124  0.92821358    -0.15300
C580        C  0.37100630  0.32995230  0.93037827     0.37000
N581        N  0.39124381  0.27693893  0.93231395    -0.89600
H582        H  0.32812510  0.27636943  0.93198436     0.18100
H583        H  0.37298825  0.48706969  0.92561366     0.18100
N584        N  0.30986410  0.48651594  0.92553372    -0.88600
H585        H  0.37778001  0.23621692  0.93308758     0.35500
H586        H  0.40259117  0.28117167  0.94304147     0.40600
H587        H  0.29870646  0.48348984  0.91472831     0.40200
H588        H  0.32327422  0.52735695  0.92513651     0.35100
C589        C  0.10849013  0.31835115  0.93058241    -0.26700
C590        C  0.13209145  0.28264659  0.92347792    -0.14700
C591        C  0.12367945  0.22586983  0.91650057     0.35900
C592        C  0.09198382  0.20520894  0.91728199    -0.26100
C593        C  0.06848993  0.24074445  0.92450749    -0.15300
C594        C  0.07682240  0.29786116  0.93129915     0.37000
N595        N  0.05322354  0.33418673  0.93924437    -0.89600
H596        H  0.11495068  0.36142405  0.93606269     0.18100
H597        H  0.08543622  0.16199206  0.91189802     0.18100
N598        N  0.14722852  0.18979498  0.90845917    -0.88600
H599        H  0.06320849  0.37493946  0.94347410     0.35500
H600        H  0.04534841  0.30853422  0.94899300     0.40600
H601        H  0.15514383  0.21587624  0.89878972     0.40200
H602        H  0.13716362  0.14935374  0.90409622     0.35100
C603        C  0.24840476  0.29559010  0.98020835    -0.26700
C604        C  0.22251760  0.32369849  0.97290724    -0.14700
C605        C  0.20070806  0.35878475  0.98179149     0.35900
C606        C  0.20557891  0.36569090  0.99785375    -0.26100
C607        C  0.23150733  0.33751639  0.00512959    -0.15300
C608        C  0.25317376  0.30250360  0.99620786     0.37000
N609        N  0.28041773  0.27480964  0.00334741    -0.89600
H610        H  0.26567087  0.27011144  0.97337971     0.18100
H611        H  0.18849564  0.39108998  0.00480265     0.18100
N612        N  0.17357049  0.38666689  0.97446672    -0.88600
H613        H  0.30078726  0.29239156  0.99773040     0.35500
H614        H  0.27950997  0.22713200  0.00146243     0.40600
H615        H  0.15989549  0.41074591  0.98261903     0.40200
H616        H  0.15922642  0.35089574  0.97037808     0.35100
C617        C  0.50242990  0.13641987  0.49685158    -0.26700
C618        C  0.48124076  0.17415749  0.50497741    -0.14700
C619        C  0.46116223  0.21518482  0.49661475     0.35900
C620        C  0.46292011  0.21762562  0.48026190    -0.26100
C621        C  0.48385822  0.17928903  0.47215824    -0.15300
C622        C  0.50410875  0.13900993  0.48054515     0.37000
N623        N  0.52694021  0.10156886  0.47253719    -0.89600
H624        H  0.51841994  0.10612591  0.50318017     0.18100
H625        H  0.44711905  0.24788561  0.47381282     0.18100
N626        N  0.43871472  0.25349947  0.50474853    -0.88600
H627        H  0.54956462  0.11312521  0.47653643     0.35500
H628        H  0.52249632  0.05523630  0.47553954     0.40600
H629        H  0.42216546  0.22418430  0.51030872     0.40200
H630        H  0.42598937  0.28113121  0.49689895     0.35100
C631        C  0.38754714  0.06518551  0.55066020    -0.26700
C632        C  0.39296309  0.12873332  0.55316267    -0.14700
C633        C  0.36673460  0.16790617  0.55551306     0.35900
C634        C  0.33586624  0.14289042  0.55508737    -0.26100
C635        C  0.33038886  0.07934345  0.55245260    -0.15300
C636        C  0.35671442  0.04015000  0.55016965     0.37000
N637        N  0.35228210  0.97530244  0.54729945    -0.89600
H638        H  0.40755735  0.03465025  0.54876282     0.18100
H639        H  0.31591728  0.17361254  0.55692524     0.18100
N640        N  0.37138965  0.23261423  0.55848234    -0.88600
H641        H  0.37417623  0.95265083  0.54660038     0.35500
H642        H  0.34195109  0.97143769  0.53631431     0.40600
H643        H  0.38271659  0.23606492  0.56923544     0.40200
H644        H  0.34954917  0.25515238  0.55967550     0.35100
C645        C  0.33158592  0.16899318  0.42073409    -0.26700
C646        C  0.31854534  0.12274638  0.43044786    -0.14700
C647        C  0.33909506  0.08475433  0.43949382     0.35900
C648        C  0.37212764  0.09173109  0.43782737    -0.26100
C649        C  0.38522351  0.13712762  0.42785085    -0.15300
C650        C  0.36469696  0.17641546  0.41924269     0.37000
N651        N  0.37754917  0.22232805  0.40858627    -0.89600
H652        H  0.31592934  0.19714892  0.41362629     0.18100
H653        H  0.38765885  0.06247522  0.44471956     0.18100
N654        N  0.32737272  0.03900321  0.45053301    -0.88600
H655        H  0.35932833  0.24734737  0.40322820     0.35500
H656        H  0.38959693  0.19899691  0.39971068     0.40600
H657        H  0.30276012  0.04163672  0.45191463     0.40200
H658        H  0.33652194  0.04990611  0.46145617     0.35100
C659        C  0.21218446  0.08498450  0.49841913    -0.26700
C660        C  0.23656682  0.04944697  0.50492245    -0.14700
C661        C  0.25641256  0.01379912  0.49511297     0.35900
C662        C  0.25090786  0.01335364  0.47902632    -0.26100
C663        C  0.22661886  0.04900244  0.47250423    -0.15300
C664        C  0.20683639  0.08489390  0.48228895     0.37000
N665        N  0.18118645  0.12052749  0.47582385    -0.89600
H666        H  0.19658738  0.11113427  0.50599349     0.18100
H667        H  0.26642729  0.98691228  0.47148494     0.18100
N668        N  0.28234716  0.97876234  0.50151642    -0.88600
H669        H  0.16904353  0.14435885  0.48457812     0.35500
H670        H  0.16492175  0.08942713  0.47111429     0.40600
H671        H  0.30261246  0.49539942  0.50498470     0.40200
H672        H  0.30025735  0.44017776  0.49149336     0.35100
C673        C  0.10206806  0.39916770  0.54978924    -0.26700
C674        C  0.08109188  0.45004522  0.54959012    -0.14700
C675        C  0.09377528  0.51034400  0.54802731     0.35900
C676        C  0.12689987  0.51826104  0.54742035    -0.26100
C677        C  0.14782065  0.46744917  0.54816398    -0.15300
C678        C  0.13510701  0.40731247  0.54908756     0.37000
N679        N  0.15549777  0.35438208  0.54973028    -0.89600
H680        H  0.09290047  0.35232697  0.55075031     0.18100
H681        H  0.13361557  0.07887172  0.55352559     0.18100
N682        N  0.07325483  0.56339818  0.54730752    -0.88600
H683        H  0.14993389  0.32586867  0.54038661     0.35500
H684        H  0.15049605  0.32987374  0.56008409     0.40600
H685        H  0.06111666  0.56169530  0.53674292     0.40200
H686        H  0.08383232  0.11652838  0.55659957     0.35100
C687        C  0.10077733  0.41051396  0.42891020    -0.26700
C688        C  0.07540899  0.44888125  0.42456242    -0.14700
C689        C  0.07956686  0.02766520  0.42308113     0.35900
C690        C  0.11089117  0.04974396  0.42305661    -0.26100
C691        C  0.13670132  0.00951377  0.42454808    -0.15300
C692        C  0.13225956  0.43286754  0.42903788     0.37000
N693        N  0.15748987  0.39305326  0.43424041    -0.89600
H694        H  0.09600549  0.36314980  0.43257432     0.18100
H695        H  0.11501672  0.09913594  0.42182757     0.18100
N696        N  0.05490157  0.07292546  0.42163198    -0.88600
H697        H  0.14877296  0.34888527  0.43709110     0.35500
H698        H  0.16636589  0.41135977  0.44455316     0.40600
H699        H  0.04023586  0.07068395  0.43155103     0.40200
H700        H  0.04177419  0.06407337  0.41161959     0.35100
C701        C  0.00791222  0.36618934  0.48269809    -0.26700
C702        C  0.98739505  0.40607602  0.47450006    -0.14700
C703        C  0.96606638  0.44352382  0.48294932     0.35900
C704        C  0.96549210  0.43962894  0.49923960    -0.26100
C705        C  0.98566635  0.39891414  0.50740604    -0.15300
C706        C  0.00733033  0.36226359  0.49895651     0.37000
N707        N  0.02965516  0.32212764  0.50649361    -0.89600
H708        H  0.02456705  0.33734608  0.47639173     0.18100
H709        H  0.94893982  0.46857641  0.50558046     0.18100
N710        N  0.94408613  0.48430487  0.47538917    -0.88600
H711        H  0.01712849  0.28831178  0.51289324     0.35500
H712        H  0.04337877  0.34827312  0.51409479     0.40600
H713        H  0.92993967  0.45842102  0.46791599     0.40200
H714        H  0.95693872  0.51715350  0.46882324     0.35100
C715        C  0.84618387  0.27629952  0.42574124    -0.26700
C716        C  0.82545728  0.32486385  0.42984479    -0.14700
C717        C  0.83853206  0.38041732  0.43543636     0.35900
C718        C  0.87167698  0.38623377  0.43653131    -0.26100
C719        C  0.89237474  0.33870112  0.43181886    -0.15300
C720        C  0.87926086  0.28269828  0.42657861     0.37000
N721        N  0.89874438  0.23249431  0.42146948    -0.89600
H722        H  0.83670068  0.23307034  0.42150583     0.18100
H723        H  0.88148659  0.42933468  0.44068588     0.18100
N724        N  0.81837839  0.43085293  0.43997312    -0.88600
H725        H  0.91288581  0.21792687  0.43076882     0.35500
H726        H  0.91343970  0.24834041  0.41232542     0.40600
H727        H  0.80836542  0.44927691  0.42981180     0.40200
H728        H  0.83177773  0.46657873  0.44476121     0.35100
C729        C  0.62979834  0.18635907  0.42633373    -0.26700
C730        C  0.63775295  0.24963788  0.42456659    -0.14700
C731        C  0.61296387  0.29252375  0.42204532     0.35900
C732        C  0.58147372  0.27164064  0.42157415    -0.26100
C733        C  0.57346495  0.20851946  0.42357895    -0.15300
C734        C  0.59813973  0.16529720  0.42577573     0.37000
N735        N  0.59116992  0.10039481  0.42762355    -0.89600
H736        H  0.64843110  0.15265629  0.42821340     0.18100
H737        H  0.56301819  0.30578267  0.41974057     0.18100
N738        N  0.61875621  0.35743355  0.41980192    -0.88600
H739        H  0.61190836  0.07531902  0.42982091     0.35500
H740        H  0.58265055  0.08485462  0.41695158     0.40600
H741        H  0.63416567  0.36372110  0.41025219     0.40200
H742        H  0.62930767  0.37476636  0.42982624     0.35100
C743        C  0.62469636  0.28064094  0.55719496    -0.26700
C744        C  0.64494562  0.23355199  0.55169093    -0.14700
C745        C  0.63146416  0.18104824  0.54476091     0.35900
C746        C  0.59823627  0.17615280  0.54389397    -0.26100
C747        C  0.57805667  0.22276452  0.54961791    -0.15300
C748        C  0.59145725  0.27569217  0.55631346     0.37000
N749        N  0.57142434  0.32322189  0.56261896    -0.89600
H750        H  0.63480991  0.32134444  0.56248547     0.18100
H751        H  0.58797003  0.13536211  0.53870192     0.18100
N752        N  0.65135685  0.13323528  0.53849388    -0.88600
H753        H  0.58513527  0.35951741  0.56691488     0.35500
H754        H  0.55907597  0.30407171  0.57219604     0.40600
H755        H  0.66377844  0.15226202  0.52892514     0.40200
H756        H  0.63755978  0.09710644  0.53417665     0.35100
C757        C  0.83900971  0.37722085  0.55075609    -0.26700
C758        C  0.83204593  0.31406189  0.55346689    -0.14700
C759        C  0.85716444  0.27322521  0.55689750     0.35900
C760        C  0.88836650  0.29661507  0.55773156    -0.26100
C761        C  0.89528882  0.35996731  0.55515213    -0.15300
C762        C  0.87018731  0.40047968  0.55137072     0.37000
N763        N  0.87625748  0.46484452  0.54796238    -0.89600
H764        H  0.81996597  0.40894664  0.54790951     0.18100
H765        H  0.90743233  0.26480587  0.56046976     0.18100
N766        N  0.85106123  0.20846647  0.55967049    -0.88600
H767        H  0.85500362  0.48860560  0.54603406     0.35500
H768        H  0.88906896  0.46733823  0.53744398     0.40600
H769        H  0.83782609  0.20441107  0.57002332     0.40200
H770        H  0.87229167  0.18458009  0.56156559     0.35100
C771        C  0.74702008  0.22985044  0.49786684    -0.26700
C772        C  0.73510470  0.28043152  0.50632246    -0.14700
C773        C  0.71989357  0.32900501  0.49825191     0.35900
C774        C  0.71780610  0.32665678  0.48194635    -0.26100
C775        C  0.73021488  0.27655116  0.47347439    -0.15300
C776        C  0.74485971  0.22737269  0.48158691     0.37000
N777        N  0.75798179  0.17564126  0.47336480    -0.89600
H778        H  0.75855535  0.19197113  0.50396288     0.18100
H779        H  0.70628693  0.36448996  0.47582396     0.18100
N780        N  0.70633944  0.38011575  0.50654381    -0.88600
H781        H  0.76659295  0.14224978  0.48118405     0.35500
H782        H  0.77767938  0.19182051  0.46694731     0.40600
H783        H  0.68717614  0.36292111  0.51318883     0.40200
H784        H  0.69689907  0.41278148  0.49876954     0.35100
C785        C  0.96743407  0.07869897  0.85945013    -0.26700
C786        C  0.98291503  0.11819395  0.84867311    -0.14700
C787        C  0.99419092  0.17666003  0.85377571     0.35900
C788        C  0.98943409  0.19391901  0.86936693    -0.26100
C789        C  0.97474108  0.15366729  0.88012094    -0.15300
C790        C  0.96323192  0.09573891  0.87509737     0.37000
N791        N  0.94725742  0.05441721  0.88593895    -0.89600
H792        H  0.95836960  0.03447676  0.85565316     0.18100
H793        H  0.99869003  0.23777319  0.87333277     0.18100
N794        N  0.01104623  0.21803432  0.84327189    -0.88600
H795        H  0.94039512  0.01368573  0.88043795     0.35500
H796        H  0.92635377  0.07612044  0.88962283     0.40600
H797        H  0.03271162  0.19713493  0.84044834     0.40200
H798        H  0.01666612  0.25951903  0.84875564     0.35100
C799        C  0.98984140  0.41172001  0.62760810    -0.26700
C800        C  0.99476549  0.47380147  0.63195481    -0.14700
C801        C  0.00133400  0.51852113  0.62019300     0.35900
C802        C  0.00125732  0.50065218  0.60448848    -0.26100
C803        C  0.99466267  0.43924168  0.60017271    -0.15300
C804        C  0.98979980  0.39406869  0.61199205     0.37000
N805        N  0.98370318  0.33044556  0.60858259    -0.89600
H806        H  0.98539117  0.37616246  0.63641726     0.18100
H807        H  0.00577780  0.53547796  0.59550060     0.18100
N808        N  0.00832618  0.09592882  0.62298726    -0.88600
H809        H  0.00331271  0.31277375  0.60254301     0.35500
H810        H  0.96363370  0.32792526  0.60152835     0.40600
H811        H  0.98782585  0.11752877  0.62722740     0.40200
H812        H  0.01516562  0.12067535  0.61292192     0.35100
C813        C  0.97445467  0.99946694  0.73280736    -0.26700
C814        C  0.99119461  0.04441181  0.72384723    -0.14700
C815        C  0.00899742  0.08985095  0.73148913     0.35900
C816        C  0.00887122  0.09042023  0.74785716    -0.26100
C817        C  0.99157465  0.04630554  0.75683304    -0.15300
C818        C  0.97430181  0.00006812  0.74919212     0.37000
N819        N  0.95610201  0.95490057  0.75798769    -0.89600
H820        H  0.96088317  0.96407640  0.72698929     0.18100
H821        H  0.02250150  0.12578917  0.75365291     0.18100
N822        N  0.02748529  0.13458961  0.72269081    -0.88600
H823        H  0.94537791  0.92331509  0.75054503     0.35500
H824        H  0.93760854  0.97825731  0.76361469     0.40600
H825        H  0.02027526  0.63406792  0.71870237     0.40200
H826        H  0.99970366  0.67762415  0.73120067     0.35100
C827        C  0.72042189  0.19936260  0.85833139    -0.26700
C828        C  0.73738039  0.15895803  0.84881357    -0.14700
C829        C  0.75132946  0.10531770  0.85547968     0.35900
C830        C  0.74677101  0.09187478  0.87131629    -0.26100
C831        C  0.72856399  0.13069436  0.88081935    -0.15300
C832        C  0.71579424  0.18606186  0.87419639     0.37000
N833        N  0.69726125  0.22900481  0.88302795    -0.89600
H834        H  0.70952434  0.24031271  0.85327791     0.18100
H835        H  0.75764833  0.05062381  0.87620527     0.18100
N836        N  0.77077158  0.06420079  0.84653566    -0.88600
H837        H  0.71150592  0.24852429  0.89158249     0.35500
H838        H  0.67803691  0.20552151  0.88823501     0.40600
H839        H  0.78872051  0.09004370  0.84093663     0.40200
H840        H  0.75689218  0.04274338  0.83814866     0.35100
C841        C  0.87338568  0.06669954  0.79970104    -0.26700
C842        C  0.89493756  0.11698032  0.79972015    -0.14700
C843        C  0.88277426  0.17765207  0.79924329     0.35900
C844        C  0.84966253  0.18644792  0.79911708    -0.26100
C845        C  0.82809096  0.13619807  0.79964522    -0.15300
C846        C  0.84026836  0.07549424  0.79960484     0.37000
N847        N  0.81921421  0.02292301  0.79975208    -0.89600
H848        H  0.88236800  0.01976370  0.79984694     0.18100
H849        H  0.84070350  0.23339343  0.79892534     0.18100
N850        N  0.90383276  0.23021089  0.79916239    -0.88600
H851        H  0.83206643  0.98165123  0.80047602     0.35500
H852        H  0.80771752  0.02249237  0.78899883     0.40600
H853        H  0.91490402  0.23113318  0.81002001     0.40200
H854        H  0.89102063  0.27146035  0.79818002     0.35100
C855        C  0.75872753  0.17128509  0.62109008    -0.26700
C856        C  0.73869457  0.20346975  0.63116591    -0.14700
C857        C  0.71954949  0.25205313  0.62528023     0.35900
C858        C  0.72106886  0.26787633  0.60941846    -0.26100
C859        C  0.74136792  0.23608189  0.59929187    -0.15300
C860        C  0.76060955  0.18750292  0.60521400     0.37000
N861        N  0.78249659  0.15568659  0.59514377    -0.89600
H862        H  0.77386384  0.13509100  0.62574587     0.18100
H863        H  0.70580941  0.30419537  0.60493502     0.18100
N864        N  0.69769472  0.28477290  0.63507791    -0.88600
H865        H  0.79459579  0.12105363  0.60129992     0.35500
H866        H  0.79963704  0.18787219  0.59138666     0.40600
H867        H  0.71039837  0.30760810  0.64368409     0.40200
H868        H  0.68242645  0.25252076  0.64048019     0.35100
C869        C  0.89225245  0.13683380  0.67864266    -0.26700
C870        C  0.89842909  0.07351402  0.67634146    -0.14700
C871        C  0.87268003  0.03319154  0.67378135     0.35900
C872        C  0.84153594  0.05713049  0.67362067    -0.26100
C873        C  0.83539822  0.12064132  0.67590297    -0.15300
C874        C  0.86125817  0.16072811  0.67858902     0.37000
N875        N  0.85617979  0.22542354  0.68141397    -0.89600
H876        H  0.91181015  0.16823799  0.68076837     0.18100
H877        H  0.82192412  0.02575151  0.67159907     0.18100
N878        N  0.87811081  0.96848469  0.67117599    -0.88600
H879        H  0.87783754  0.24882150  0.68244958     0.35500
H880        H  0.84465513  0.22887260  0.69223780     0.40600
H881        H  0.89058563  0.96473238  0.66061305     0.40200
H882        H  0.85656010  0.94505972  0.66977410     0.35100
C883        C  0.71682904  0.14420920  0.73126549    -0.26700
C884        C  0.74486354  0.16411427  0.72378618    -0.14700
C885        C  0.76920414  0.19240993  0.73255683     0.35900
C886        C  0.76397145  0.20329648  0.74842541    -0.26100
C887        C  0.73577601  0.18405278  0.75582912    -0.15300
C888        C  0.71213743  0.15380253  0.74722472     0.37000
N889        N  0.68303757  0.13404730  0.75462473    -0.89600
H890        H  0.69796087  0.12340377  0.72458834     0.18100
H891        H  0.78273541  0.22410462  0.75518138     0.18100
N892        N  0.79958942  0.20956318  0.72586386    -0.88600
H893        H  0.68064164  0.08636041  0.75305925     0.35500
H894        H  0.66421104  0.15598661  0.74893456     0.40600
H895        H  0.80203485  0.19397300  0.71445304     0.40200
H896        H  0.81706205  0.18600121  0.73216593     0.35100
C897        C  0.49293778  0.18268304  0.62520960    -0.26700
C898        C  0.49353119  0.24561085  0.62947906    -0.14700
C899        C  0.49353019  0.29138156  0.61755993     0.35900
C900        C  0.49218283  0.27354671  0.60200073    -0.26100
C901        C  0.49067392  0.21076150  0.59774894    -0.15300
C902        C  0.49153825  0.16487938  0.60960079     0.37000
N903        N  0.49020964  0.10015199  0.60628126    -0.89600
H904        H  0.49320568  0.14649969  0.63409822     0.18100
H905        H  0.49204352  0.30979679  0.59312222     0.18100
N906        N  0.49413078  0.35625777  0.62075912    -0.88600
H907        H  0.50995717  0.08876508  0.59942639     0.35500
H908        H  0.46946433  0.09128438  0.60005593     0.40600
H909        H  0.51502711  0.36650957  0.62669813     0.40200
H910        H  0.47443781  0.36700838  0.62774218     0.35100
C911        C  0.59672330  0.19335050  0.68610922    -0.26700
C912        C  0.58543763  0.24354991  0.67727623    -0.14700
C913        C  0.60754567  0.28419812  0.66975487     0.35900
C914        C  0.64030988  0.27375491  0.67135497    -0.26100
C915        C  0.65143926  0.22277274  0.67988730    -0.15300
C916        C  0.62949961  0.18274986  0.68757808     0.37000
N917        N  0.64066978  0.13177381  0.69697530    -0.89600
H918        H  0.57994022  0.16289279  0.69210210     0.18100
H919        H  0.65720279  0.30389511  0.66532903     0.18100
N920        N  0.59672542  0.33496381  0.66016707    -0.88600
H921        H  0.62155901  0.10675021  0.70180988     0.35500
H922        H  0.65308687  0.15036327  0.70632121     0.40600
H923        H  0.58503728  0.31619629  0.65061439     0.40200
H924        H  0.61596787  0.36046933  0.65563232     0.35100
C925        C  0.47453442  0.41995388  0.85201297    -0.26700
C926        C  0.48165126  0.35843511  0.84791013    -0.14700
C927        C  0.48756999  0.31481393  0.85989877     0.35900
C928        C  0.48661834  0.33334565  0.87543750    -0.26100
C929        C  0.47976684  0.39490249  0.87963942    -0.15300
C930        C  0.47357275  0.43873966  0.86769632     0.37000
N931        N  0.46635687  0.50186085  0.87141173    -0.89600
H932        H  0.46982673  0.45386974  0.84289415     0.18100
H933        H  0.49147721  0.29858988  0.88432870     0.18100
N934        N  0.49555222  0.25179294  0.85673285    -0.88600
H935        H  0.46120555  0.52737037  0.86129291     0.35500
H936        H  0.48690934  0.52155296  0.87600112     0.40600
H937        H  0.51556855  0.25125085  0.84939197     0.40200
H938        H  0.47645262  0.23100173  0.85111292     0.35100
C939        C  0.60309821  0.31633858  0.80654267    -0.26700
C940        C  0.57887333  0.27488688  0.80270621    -0.14700
C941        C  0.58704294  0.21286971  0.79927396     0.35900
C942        C  0.61879606  0.19349427  0.80001636    -0.26100
C943        C  0.64307761  0.23472211  0.80392642    -0.15300
C944        C  0.63495202  0.29691156  0.80727096     0.37000
N945        N  0.65882898  0.34057275  0.81165106    -0.89600
H946        H  0.59727727  0.36380263  0.80929325     0.18100
H947        H  0.62446938  0.14602881  0.79719485     0.18100
N948        N  0.56325872  0.16939440  0.79464046    -0.88600
H949        H  0.65283260  0.35736933  0.82267447     0.35500
H950        H  0.65839664  0.37770557  0.80369139     0.40600
H951        H  0.56355122  0.13184526  0.80247709     0.40200
H952        H  0.56942845  0.15320674  0.78357846     0.35100
C953        C  0.48273291  0.35651455  0.74614014    -0.26700
C954        C  0.48796910  0.30257935  0.75521533    -0.14700
C955        C  0.49446198  0.24651135  0.74766564     0.35900
C956        C  0.49529458  0.24559067  0.73127651    -0.26100
C957        C  0.49012675  0.29956130  0.72221569    -0.15300
C958        C  0.48353288  0.35556652  0.72975472     0.37000
N959        N  0.47702386  0.41086322  0.72082279    -0.89600
H960        H  0.47752343  0.39975125  0.75186721     0.18100
H961        H  0.50046462  0.20236734  0.72553231     0.18100
N962        N  0.50077645  0.19109647  0.75658330    -0.88600
H963        H  0.47298299  0.44824594  0.72819073     0.35500
H964        H  0.45583050  0.40359030  0.71484117     0.40600
H965        H  0.52200369  0.19805499  0.76255998     0.40200
H966        H  0.50467268  0.15368847  0.74920619     0.35100
C967        C  0.24440544  0.40233588  0.61858449    -0.26700
C968        C  0.23727489  0.45004141  0.62884036    -0.14700
C969        C  0.22960573  0.50924911  0.62276043     0.35900
C970        C  0.23044712  0.52010163  0.60660781    -0.26100
C971        C  0.23865695  0.47289605  0.59626848    -0.15300
C972        C  0.24532476  0.41277840  0.60249142     0.37000
N973        N  0.25351637  0.36113250  0.59296759    -0.89600
H974        H  0.25022288  0.35668838  0.62311338     0.18100
H975        H  0.22469482  0.56592482  0.60218786     0.18100
N976        N  0.22053071  0.55842273  0.63291173    -0.88600
H977        H  0.27425109  0.37154635  0.58661100     0.35500
H978        H  0.23474958  0.35186006  0.58544974     0.40600
H979        H  0.19777105  0.57316616  0.62980969     0.40200
H980        H  0.23627072  0.59540114  0.63100892     0.35100
C981        C  0.09432075  0.41593219  0.68087561    -0.26700
C982        C  0.08275483  0.47645898  0.68136395    -0.14700
C983        C  0.10757779  0.03840556  0.67502838     0.35900
C984        C  0.13745936  0.51473310  0.68123392    -0.26100
C985        C  0.14903807  0.45433450  0.67995261    -0.15300
C986        C  0.12708629  0.40405199  0.68037040     0.37000
N987        N  0.13790530  0.34094807  0.68017441    -0.89600
H988        H  0.07771739  0.37751802  0.68065604     0.18100
H989        H  0.15701894  0.06176965  0.67194439     0.18100
N990        N  0.09745009  0.09880545  0.67010076    -0.88600
H991        H  0.11872150  0.31009004  0.67988795     0.35500
H992        H  0.14945330  0.33227495  0.69071844     0.40600
H993        H  0.10670156  0.10764621  0.65891049     0.40200
H994        H  0.10716545  0.13119859  0.67765655     0.35100
C995        C  0.34203392  0.30918038  0.67333035    -0.26700
C996        C  0.33548650  0.37322134  0.67260042    -0.14700
C997        C  0.36117320  0.41526480  0.67205813     0.35900
C998        C  0.39244294  0.39246468  0.67268592    -0.26100
C999        C  0.39897240  0.32842774  0.67372532    -0.15300
C1000       C  0.37326829  0.28636770  0.67399872     0.37000
N1001       N  0.37871576  0.22075123  0.67491522    -0.89600
H1002       H  0.32258336  0.27620339  0.67370194     0.18100
H1003       H  0.41190441  0.42542279  0.67237110     0.18100
N1004       N  0.35562726  0.48080710  0.67093298    -0.88600
H1005       H  0.35731826  0.19631837  0.67407798     0.35500
H1006       H  0.38749901  0.21075210  0.68603237     0.40600
H1007       H  0.34567783  0.48990482  0.66001362     0.40200
H1008       H  0.37708865  0.50533264  0.67115362     0.35100
C1009       C  0.23385385  0.32518077  0.85297844    -0.26700
C1010       C  0.23142501  0.38675482  0.84743275    -0.14700
C1011       C  0.22828271  0.43491734  0.85822462     0.35900
C1012       C  0.22687438  0.42022388  0.87420276    -0.26100
C1013       C  0.22880014  0.35856570  0.87975091    -0.15300
C1014       C  0.23241502  0.31047002  0.86896310     0.37000
N1015       N  0.23430139  0.24699146  0.87415209    -0.89600
H1016       H  0.23652691  0.28783811  0.84477377     0.18100
H1017       H  0.22433157  0.45767058  0.88238331     0.18100
N1018       N  0.22582630  0.49830068  0.85302607    -0.88600
H1019       H  0.23813974  0.21772148  0.86471273     0.35500
H1020       H  0.21211891  0.23475658  0.87891207     0.40600
H1021       H  0.24799948  0.51140226  0.84840727     0.40200
H1022       H  0.22153246  0.52740904  0.86245020     0.35100
C1023       C  0.33729623  0.31796974  0.80107697    -0.26700
C1024       C  0.32565493  0.37824466  0.79952456    -0.14700
C1025       C  0.34759412  0.42818498  0.79784406     0.35900
C1026       C  0.38043146  0.41645238  0.79818235    -0.26100
C1027       C  0.39206169  0.35618197  0.79997454    -0.15300
C1028       C  0.37002467  0.30638907  0.80134791     0.37000
N1029       N  0.38054217  0.24367477  0.80313953    -0.89600
H1030       H  0.32091361  0.27935347  0.80236083     0.18100
H1031       H  0.39701788  0.45475286  0.79702189     0.18100
N1032       N  0.33665753  0.49075902  0.79576062    -0.88600
H1033       H  0.37137405  0.21798784  0.79396375     0.35500
H1034       H  0.37103990  0.22572791  0.81359403     0.40600
H1035       H  0.32566256  0.49361556  0.78489087     0.40200
H1036       H  0.35575801  0.52180108  0.79526537     0.35100
C1037       C  0.13170383  0.52028486  0.79941800    -0.26700
C1038       C  0.13850249  0.45682881  0.80154637    -0.14700
C1039       C  0.11318087  0.41529536  0.80455847     0.35900
C1040       C  0.08199250  0.43832578  0.80559263    -0.26100
C1041       C  0.07526256  0.50192017  0.80356274    -0.15300
C1042       C  0.10595815  0.05208496  0.80146691     0.37000
N1043       N  0.10260849  0.11702636  0.79799411    -0.89600
H1044       H  0.15089354  0.55274798  0.79704708     0.18100
H1045       H  0.06275139  0.40590885  0.80789637     0.18100
N1046       N  0.11904730  0.35026594  0.80681849    -0.88600
H1047       H  0.12448533  0.13654067  0.79467866     0.35500
H1048       H  0.09575680  0.13867495  0.80832548     0.40600
H1049       H  0.12655321  0.33271467  0.79609360     0.40200
H1050       H  0.09799635  0.32678743  0.80976772     0.35100
C1051       C  0.21578474  0.37925777  0.74595321    -0.26700
C1052       C  0.23533028  0.42014412  0.75417563    -0.14700
C1053       C  0.25887920  0.45449626  0.74597876     0.35900
C1054       C  0.26223844  0.44741982  0.72989268    -0.26100
C1055       C  0.24259329  0.40675697  0.72165610    -0.15300
C1056       C  0.21901565  0.37244527  0.72985292     0.37000
N1057       N  0.19723910  0.33230826  0.72214882    -0.89600
H1058       H  0.19765750  0.35237139  0.75210120     0.18100
H1059       H  0.28028888  0.47447987  0.72373805     0.18100
N1060       N  0.28033467  0.49532857  0.75365768    -0.88600
H1061       H  0.21014978  0.29739007  0.71666809     0.35500
H1062       H  0.18502606  0.35809935  0.71373115     0.40600
H1063       H  0.29245831  0.47002390  0.76220781     0.40200
H1064       H  0.26719516  0.53025955  0.75898049     0.35100
C1065       C  0.23019083  0.17771423  0.37592069    -0.26700
C1066       C  0.23213888  0.11437245  0.38015696    -0.14700
C1067       C  0.23551897  0.07037976  0.36825135     0.35900
C1068       C  0.23589091  0.09012183  0.35269090    -0.26100
C1069       C  0.23293704  0.15309078  0.34843367    -0.15300
C1070       C  0.23042719  0.19753128  0.36021499     0.37000
N1071       N  0.22750775  0.26216972  0.35627849    -0.89600
H1072       H  0.22801055  0.21221583  0.38490986     0.18100
H1073       H  0.23831907  0.05524579  0.34379825     0.18100
N1074       N  0.23796644  0.00531011  0.37144159    -0.88600
H1075       H  0.22654334  0.28877381  0.36636448     0.35500
H1076       H  0.20571253  0.26821422  0.35071281     0.40600
H1077       H  0.21781346  0.99077846  0.37775257     0.40200
H1078       H  0.25831185  0.99721201  0.37804975     0.35100
C1079       C  0.24043004  0.32178653  0.12518106    -0.26700
C1080       C  0.23255383  0.26076105  0.13004380    -0.14700
C1081       C  0.22313678  0.21802953  0.11866255     0.35900
C1082       C  0.22245407  0.23661547  0.10299711    -0.26100
C1083       C  0.23095821  0.29713211  0.09814363    -0.15300
C1084       C  0.23971745  0.34029241  0.10949179     0.37000
N1085       N  0.24894990  0.40244680  0.10548795    -0.89600
H1086       H  0.24752199  0.35587164  0.13362335     0.18100
H1087       H  0.21538079  0.20277652  0.09447992     0.18100
N1088       N  0.21444050  0.15543096  0.12248337    -0.88600
H1089       H  0.22979256  0.42458668  0.10014581     0.35500
H1090       H  0.26810011  0.40100072  0.09761625     0.40600
H1091       H  0.19486590  0.15577113  0.13009780     0.40200
H1092       H  0.23363770  0.13376458  0.12793014     0.35100
C1093       C  0.22574224  0.25812177  0.24795363    -0.26700
C1094       C  0.23628693  0.20477352  0.25566600    -0.14700
C1095       C  0.24672348  0.15333578  0.24690749     0.35900
C1096       C  0.24543377  0.15590077  0.23056858    -0.26100
C1097       C  0.23468739  0.20913579  0.22287024    -0.15300
C1098       C  0.22448522  0.26070240  0.23162391     0.37000
N1099       N  0.21223716  0.31503226  0.22389525    -0.89600
H1100       H  0.21742771  0.29703423  0.25469523     0.18100
H1101       H  0.25368478  0.11697956  0.22381059     0.18100
N1102       N  0.25904246  0.09905473  0.25463430    -0.88600
H1103       H  0.20594024  0.34868464  0.23200293     0.35500
H1104       H  0.19129886  0.30225771  0.21829647     0.40600
H1105       H  0.27989246  0.11197529  0.26029241     0.40200
H1106       H  0.26551055  0.06554987  0.24652102     0.35100
C1107       C  0.49829786  0.15810921  0.35311681    -0.26700
C1108       C  0.48103127  0.10664935  0.34784354    -0.14700
C1109       C  0.46200194  0.07252525  0.35853396     0.35900
C1110       C  0.46105756  0.09028820  0.37423526    -0.26100
C1111       C  0.47835791  0.14173872  0.37944918    -0.15300
C1112       C  0.49766503  0.17563811  0.36874420     0.37000
N1113       N  0.51784468  0.22623630  0.37319612    -0.89600
H1114       H  0.51317714  0.18464473  0.34504672     0.18100
H1115       H  0.44665331  0.06377160  0.38252032     0.18100
N1116       N  0.44344325  0.02073882  0.35345923    -0.88600
H1117       H  0.54131357  0.21387797  0.37059306     0.35500
H1118       H  0.51720197  0.23388296  0.38515265     0.40600
H1119       H  0.42604384  0.03789657  0.34593635     0.40200
H1120       H  0.43131974  0.00000733  0.36289477     0.35100
C1121       C  0.38110752  0.18450489  0.30460111    -0.26700
C1122       C  0.39167769  0.12757604  0.29904505    -0.14700
C1123       C  0.36929161  0.08396993  0.29363971     0.35900
C1124       C  0.33673233  0.09688865  0.29477631    -0.26100
C1125       C  0.32593793  0.15285993  0.30087934    -0.15300
C1126       C  0.34847054  0.19763865  0.30570382     0.37000
N1127       N  0.33829900  0.25567899  0.31204335    -0.89600
H1128       H  0.39829876  0.21778271  0.30872486     0.18100
H1129       H  0.31970187  0.06321053  0.29070129     0.18100
N1130       N  0.37971049  0.02672705  0.28693283    -0.88600
H1131       H  0.35783797  0.28374031  0.31454953     0.35500
H1132       H  0.32684602  0.24607529  0.32270093     0.40600
H1133       H  0.39238124  0.03769167  0.27668755     0.40200
H1134       H  0.36028880  0.99972715  0.28365454     0.35100
C1135       C  0.49057052  0.55534009  0.11920729    -0.26700
C1136       C  0.47847646  0.51092634  0.12978369    -0.14700
C1137       C  0.46870796  0.45249081  0.12408506     0.35900
C1138       C  0.47174789  0.43957710  0.10818825    -0.26100
C1139       C  0.48356957  0.48408985  0.09768202    -0.15300
C1140       C  0.49323729  0.54260322  0.10321715     0.37000
N1141       N  0.50600212  0.58870686  0.09258855    -0.89600
H1142       H  0.49829123  0.59990302  0.12342140     0.18100
H1143       H  0.46377098  0.39513831  0.10397531     0.18100
N1144       N  0.45516613  0.40607982  0.13429181    -0.88600
H1145       H  0.52733857  0.57154158  0.08804147     0.35500
H1146       H  0.51169334  0.62921522  0.09848670     0.40600
H1147       H  0.46908961  0.36619907  0.13353370     0.40200
H1148       H  0.43239583  0.39544428  0.13032573     0.35100
C1149       C  0.36443893  0.08270207  0.16802214    -0.26700
C1150       C  0.38878358  0.11639470  0.17495237    -0.14700
C1151       C  0.38185281  0.17460144  0.18156466     0.35900
C1152       C  0.35084294  0.19838163  0.18079444    -0.26100
C1153       C  0.32640055  0.16506896  0.17375546    -0.15300
C1154       C  0.33341662  0.10662149  0.16713770     0.37000
N1155       N  0.30921641  0.07202722  0.15931525    -0.89600
H1156       H  0.36988769  0.03851371  0.16281844     0.18100
H1157       H  0.34559306  0.24251215  0.18606874     0.18100
N1158       N  0.40627580  0.20894617  0.18930076    -0.88600
H1159       H  0.31816828  0.02990001  0.15536517     0.35500
H1160       H  0.30276052  0.09752428  0.14938258     0.40600
H1161       H  0.41317059  0.18300479  0.19908469     0.40200
H1162       H  0.39737496  0.25080275  0.19345458     0.35100
C1163       C  0.48672205  0.12269855  0.24654542    -0.26700
C1164       C  0.48159561  0.06659993  0.25487656    -0.14700
C1165       C  0.47423856  0.01276027  0.24659379     0.35900
C1166       C  0.47258998  0.01618833  0.23027525    -0.26100
C1167       C  0.47836084  0.07203948  0.22192279    -0.15300
C1168       C  0.48495098  0.12615845  0.23022868     0.37000
N1169       N  0.48990360  0.18431163  0.22217831    -0.89600
H1170       H  0.49188802  0.16471485  0.25278536     0.18100
H1171       H  0.46726497  0.97421113  0.22404991     0.18100
N1172       N  0.46862229  0.95482451  0.25465227    -0.88600
H1173       H  0.49555553  0.21913952  0.23003599     0.35500
H1174       H  0.46828811  0.19701311  0.21716328     0.40600
H1175       H  0.49014114  0.94091453  0.25956856     0.40200
H1176       H  0.46230418  0.92035721  0.24681908     0.35100
C1177       C  0.98644152  0.28564712  0.35959112    -0.26700
C1178       C  0.97685011  0.33338846  0.34951464    -0.14700
C1179       C  0.96640277  0.39014224  0.35593526     0.35900
C1180       C  0.96771521  0.39903317  0.37198975    -0.26100
C1181       C  0.97903752  0.35275217  0.38206182    -0.15300
C1182       C  0.98743726  0.29429633  0.37581311     0.37000
N1183       N  0.99722754  0.24399998  0.38582228    -0.89600
H1184       H  0.99386380  0.24184542  0.35476585     0.18100
H1185       H  0.96014938  0.44316920  0.37656754     0.18100
N1186       N  0.95371061  0.43948724  0.34655539    -0.88600
H1187       H  0.00398656  0.20567381  0.37926929     0.35500
H1188       H  0.97733917  0.22998689  0.39241749     0.40600
H1189       H  0.93544306  0.42193887  0.33970289     0.40200
H1190       H  0.97168009  0.45812005  0.33939936     0.35100
C1191       C  0.08245516  0.21080954  0.30520495    -0.26700
C1192       C  0.07478690  0.27398521  0.30319739    -0.14700
C1193       C  0.09971843  0.31717951  0.30097630     0.35900
C1194       C  0.13139108  0.29632194  0.30099605    -0.26100
C1195       C  0.13895450  0.23313213  0.30295110    -0.15300
C1196       C  0.11407093  0.18998219  0.30515835     0.37000
N1197       N  0.12082553  0.12533850  0.30753906    -0.89600
H1198       H  0.06363322  0.17701157  0.30695936     0.18100
H1199       H  0.15033706  0.32986488  0.29922504     0.18100
N1200       N  0.09301410  0.38183377  0.29861373    -0.88600
H1201       H  0.09978421  0.09963059  0.30858567     0.35500
H1202       H  0.13240868  0.12068952  0.31822391     0.40600
H1203       H  0.08186275  0.38662946  0.28782118     0.40200
H1204       H  0.11408944  0.40752566  0.29775975     0.35100
C1205       C  0.97375588  0.33130448  0.11958051    -0.26700
C1206       C  0.98820884  0.28981950  0.12986807    -0.14700
C1207       C  0.00180313  0.23474406  0.12408434     0.35900
C1208       C  0.99933206  0.22110033  0.10814791    -0.26100
C1209       C  0.98367848  0.26142203  0.09784897    -0.15300
C1210       C  0.97083331  0.31759668  0.10370934     0.37000
N1211       N  0.95415229  0.36018758  0.09368760    -0.89600
H1212       H  0.96318913  0.37317260  0.12410189     0.18100
H1213       H  0.00976943  0.17890543  0.10376515     0.18100
N1214       N  0.01814126  0.19294926  0.13444196    -0.88600
H1215       H  0.94755660  0.39999537  0.09970151     0.35500
H1216       H  0.93299106  0.33863761  0.09043127     0.40600
H1217       H  0.03802888  0.21628852  0.13865409     0.40200
H1218       H  0.02671068  0.15467115  0.12838653     0.35100
C1219       C  0.08991257  0.24088723  0.18683712    -0.26700
C1220       C  0.07734838  0.28949472  0.17788327    -0.14700
C1221       C  0.09864336  0.33114592  0.17001530     0.35900
C1222       C  0.13152068  0.32245978  0.17109643    -0.26100
C1223       C  0.14386091  0.27297568  0.17975207    -0.15300
C1224       C  0.12284683  0.23254020  0.18790645     0.37000
N1225       N  0.13495401  0.18290098  0.19736858    -0.89600
H1226       H  0.07413000  0.20939261  0.19315284     0.18100
H1227       H  0.14745457  0.35301090  0.16457359     0.18100
N1228       N  0.08779223  0.38104679  0.16026574    -0.88600
H1229       H  0.12569561  0.14133619  0.19324214     0.35500
H1230       H  0.12657955  0.18869066  0.20878481     0.40600
H1231       H  0.07581240  0.41318710  0.16713772     0.40200
H1232       H  0.07235880  0.36333774  0.15194018     0.35100
C1233       C  0.96543909  0.27311224  0.23104322    -0.26700
C1234       C  0.97991765  0.32340998  0.22302347    -0.14700
C1235       C  0.99498084  0.36989554  0.23163306     0.35900
C1236       C  0.99530482  0.36479221  0.24799387    -0.26100
C1237       C  0.98121930  0.31395637  0.25598307    -0.15300
C1238       C  0.96576142  0.26800035  0.24737414     0.37000
N1239       N  0.95004480  0.21685003  0.25516721    -0.89600
H1240       H  0.95356920  0.23737761  0.22452555     0.18100
H1241       H  0.00711715  0.40052343  0.25453731     0.18100
N1242       N  0.01042966  0.42129807  0.22382200    -0.88600
H1243       H  0.94049053  0.18641850  0.24707152     0.35500
H1244       H  0.93078323  0.23469475  0.26145517     0.40600
H1245       H  0.02989231  0.40387024  0.21761065     0.40200
H1246       H  0.01966549  0.45209944  0.23192016     0.35100
C1247       C  0.75288019  0.38872455  0.35877913    -0.26700
C1248       C  0.72877167  0.36416456  0.34956863    -0.14700
C1249       C  0.70788558  0.31904495  0.35604032     0.35900
C1250       C  0.71162240  0.29891682  0.37148775    -0.26100
C1251       C  0.73560313  0.32354782  0.38069791    -0.15300
C1252       C  0.75678636  0.36861306  0.37425838     0.37000
N1253       N  0.78253532  0.39457281  0.38298401    -0.89600
H1254       H  0.76938458  0.42241407  0.35379604     0.18100
H1255       H  0.69479875  0.26589635  0.37651483     0.18100
N1256       N  0.68218640  0.29490150  0.34709665    -0.88600
H1257       H  0.80370924  0.38382805  0.37712931     0.35500
H1258       H  0.78434772  0.37401917  0.39402861     0.40600
H1259       H  0.66088310  0.30459623  0.35296027     0.40200
H1260       H  0.68463589  0.24680838  0.34666219     0.35100
C1261       C  0.83259747  0.30886627  0.30759617    -0.26700
C1262       C  0.82019323  0.36214704  0.30054206    -0.14700
C1263       C  0.84124789  0.40676850  0.29384431     0.35900
C1264       C  0.87425550  0.39824065  0.29493643    -0.26100
C1265       C  0.88671940  0.34548881  0.30226072    -0.15300
C1266       C  0.86555778  0.30028674  0.30860430     0.37000
N1267       N  0.87736334  0.24637197  0.31653830    -0.89600
H1268       H  0.81669681  0.27484965  0.31290929     0.18100
H1269       H  0.89029384  0.43236837  0.28978416     0.18100
N1270       N  0.82898961  0.46036088  0.28581278    -0.88600
H1271       H  0.86856656  0.20731656  0.31093706     0.35500
H1272       H  0.86833434  0.24606771  0.32795678     0.40600
H1273       H  0.81696879  0.44473762  0.27600384     0.40200
H1274       H  0.84751863  0.48872884  0.28167079     0.35100
C1275       C  0.63092328  0.02674054  0.30408911    -0.26700
C1276       C  0.63536398  0.96205812  0.30348956    -0.14700
C1277       C  0.60866000  0.41819337  0.30622461     0.35900
C1278       C  0.57796462  0.95024270  0.30227542    -0.26100
C1279       C  0.57360404  0.01493431  0.30295523    -0.15300
C1280       C  0.60055791  0.05351437  0.30389293     0.37000
N1281       N  0.59720530  0.11960850  0.30475633    -0.89600
H1282       H  0.65135916  0.05716245  0.30478144     0.18100
H1283       H  0.55744892  0.92007943  0.30145574     0.18100
N1284       N  0.61236808  0.35254146  0.30848321    -0.88600
H1285       H  0.61946342  0.14130162  0.30482147     0.35500
H1286       H  0.58636654  0.12931610  0.31547870     0.40600
H1287       H  0.62095028  0.33457712  0.29799769     0.40200
H1288       H  0.59032027  0.33131094  0.31056821     0.35100
C1289       C  0.72606438  0.05579065  0.12611229    -0.26700
C1290       C  0.73183110  0.99417501  0.13084781    -0.14700
C1291       C  0.73718751  0.94896131  0.11950416     0.35900
C1292       C  0.73701115  0.96652358  0.10371128    -0.26100
C1293       C  0.73196063  0.02850436  0.09889982    -0.15300
C1294       C  0.72595808  0.07337503  0.11036823     0.37000
N1295       N  0.71986863  0.13695440  0.10653092    -0.89600
H1296       H  0.72155798  0.09094229  0.13474850     0.18100
H1297       H  0.74132598  0.93118069  0.09511809     0.18100
N1298       N  0.75388092  0.37009042  0.12498851    -0.88600
H1299       H  0.69962062  0.13935991  0.09958999     0.35500
H1300       H  0.73940695  0.15500338  0.10031873     0.40600
H1301       H  0.77386541  0.37660209  0.13194052     0.40200
H1302       H  0.76154285  0.34510212  0.11530252     0.35100
C1303       C  0.62688171  0.04858798  0.18406899    -0.26700
C1304       C  0.63892243  0.99449801  0.17741762    -0.14700
C1305       C  0.61516837  0.43489191  0.17017081     0.35900
C1306       C  0.58247925  0.44641806  0.17066478    -0.26100
C1307       C  0.57262802  0.01734623  0.17794202    -0.15300
C1308       C  0.59401937  0.06038166  0.18448878     0.37000
N1309       N  0.58229124  0.11575229  0.19164945    -0.89600
H1310       H  0.64312025  0.08149558  0.18914889     0.18100
H1311       H  0.56649887  0.41561582  0.16465011     0.18100
N1312       N  0.62564251  0.38246203  0.16147787    -0.88600
H1313       H  0.60105746  0.14263993  0.19575286     0.35500
H1314       H  0.56869674  0.10232142  0.20142120     0.40600
H1315       H  0.63600745  0.35029102  0.16906598     0.40200
H1316       H  0.64227082  0.39722836  0.15304791     0.35100
C1317       C  0.83199998  0.33269821  0.17958419    -0.26700
C1318       C  0.82425557  0.39517394  0.17642747    -0.14700
C1319       C  0.84915428  0.43658617  0.17236670     0.35900
C1320       C  0.88050688  0.41517869  0.17167410    -0.26100
C1321       C  0.88841627  0.35296109  0.17505326    -0.15300
C1322       C  0.86348342  0.31134127  0.17901204     0.37000
N1323       N  0.86918652  0.24754476  0.18275331    -0.89600
H1324       H  0.81339243  0.29983073  0.18270352     0.18100
H1325       H  0.89895804  0.44830516  0.16851007     0.18100
N1326       N  0.84354319  0.50041324  0.16860972    -0.88600
H1327       H  0.88445793  0.24506452  0.19228722     0.35500
H1328       H  0.88002063  0.22679210  0.17313862     0.40600
H1329       H  0.83561089  0.02953327  0.18683280     0.40200
H1330       H  0.82758999  0.50299284  0.15935235     0.35100
C1331       C  0.74430988  0.98620976  0.23262861    -0.26700
C1332       C  0.72854465  0.42560553  0.22422258    -0.14700
C1333       C  0.71356003  0.37647540  0.23232370     0.35900
C1334       C  0.71256744  0.37655732  0.24861841    -0.26100
C1335       C  0.72630328  0.42489976  0.25714421    -0.15300
C1336       C  0.74310339  0.98407037  0.24902140     0.37000
N1337       N  0.75698249  0.03314464  0.25784876    -0.89600
H1338       H  0.75571522  0.02545712  0.22685557     0.18100
H1339       H  0.70094164  0.33805956  0.25461983     0.18100
N1340       N  0.69888829  0.32684337  0.22412419    -0.88600
H1341       H  0.76596153  0.06797901  0.25041794     0.35500
H1342       H  0.77648964  0.01479746  0.26375286     0.40600
H1343       H  0.67484985  0.32513186  0.22735622     0.40200
H1344       H  0.70944769  0.28537982  0.22774452     0.35100
O1345       O  0.78099935  0.46971315  0.17796599    -0.72100
O1346       O  0.69179155  0.50742670  0.17966462    -0.72300
O1347       O  0.73678448  0.47993205  0.20055846    -0.72200
O1348       O  0.73621449  0.50179239  0.15728108    -0.72200
O1349       O  0.72782306  0.92571732  0.15326695    -0.72200
O1350       O  0.72705547  0.89944722  0.19744606    -0.72200
O1351       O  0.68177506  0.41026029  0.17611515    -0.72100
O1352       O  0.77094447  0.89188534  0.17456494    -0.72300
V1353       V  0.73631042  0.48779929  0.17882288     1.35200
V1354       V  0.72774303  0.91343242  0.17537748     1.35200
C1355       C  0.79220619  0.93263163  0.17575089     0.77100
C1356       C  0.67154523  0.46439552  0.17778845     0.77200
C1357       C  0.73255620  0.94437383  0.20641390     0.77100
C1358       C  0.73135735  0.45772749  0.14821242     0.77000
O1359       O  0.67605803  0.88226028  0.30135832    -0.72100
O1360       O  0.76428170  0.83590346  0.30066612    -0.72300
O1361       O  0.71827811  0.84108669  0.32259301    -0.72200
O1362       O  0.72163364  0.87239324  0.27948770    -0.72200
O1363       O  0.73191880  0.46367974  0.28333091    -0.72200
O1364       O  0.73431372  0.93441628  0.32721822    -0.72200
O1365       O  0.77650032  0.93273008  0.30359761    -0.72100
O1366       O  0.69079457  0.47203767  0.30725823    -0.72300
V1367       V  0.72025578  0.85967208  0.30114420     1.35200
V1368       V  0.73318920  0.95115796  0.30517145     1.35200
C1369       C  0.66854189  0.93815501  0.30398186     0.77100
C1370       C  0.78536830  0.87798819  0.30154652     0.77200
C1371       C  0.72665744  0.88077174  0.33232187     0.77100
C1372       C  0.72755769  0.92528062  0.27383331     0.77000
O1373       O  0.93203039  0.79102627  0.17530389    -0.72100
O1374       O  0.02047270  0.75011037  0.17805230    -0.72300
O1375       O  0.97375310  0.77616929  0.19833274    -0.72200
O1376       O  0.97858142  0.76002061  0.15500666    -0.72200
O1377       O  0.99147458  0.85701304  0.15204990    -0.72200
O1378       O  0.98556189  0.87381062  0.19651685    -0.72200
O1379       O  0.03185744  0.84791490  0.17600462    -0.72100
O1380       O  0.94523009  0.88760857  0.17264561    -0.72300
V1381       V  0.97637884  0.77128867  0.17660244     1.35200
V1382       V  0.98821628  0.86479126  0.17431594     1.35200
C1383       C  0.92363115  0.84722894  0.17377481     0.77100
C1384       C  0.04121170  0.79304336  0.17762097     0.77200
C1385       C  0.97902652  0.82655518  0.20497523     0.77100
C1386       C  0.98680551  0.80418205  0.14614951     0.77000
O1387       O  0.03084262  0.85079101  0.30092669    -0.72100
O1388       O  0.94116435  0.88616399  0.30081006    -0.72300
O1389       O  0.98623626  0.87736103  0.32246449    -0.72200
O1390       O  0.98602306  0.86509076  0.27918084    -0.72200
O1391       O  0.97499108  0.76705321  0.28074394    -0.72200
O1392       O  0.97587654  0.77965954  0.32544995    -0.72200
O1393       O  0.93189854  0.78767628  0.30329996    -0.72100
O1394       O  0.01909025  0.75332769  0.30299831    -0.72300
V1395       V  0.98591169  0.86791719  0.30090171     1.35200
V1396       V  0.97578315  0.77372498  0.30307701     1.35200
C1397       C  0.04007743  0.79481959  0.30187094     0.77100
C1398       C  0.92130202  0.84178188  0.30219918     0.77200
C1399       C  0.98026601  0.83248972  0.33145357     0.77100
C1400       C  0.98011302  0.81535459  0.27240501     0.77000
O1401       O  0.48436845  0.57723618  0.15219075    -0.72100
O1402       O  0.48461738  0.59850117  0.19653351    -0.72300
O1403       O  0.52765599  0.56741298  0.17499930    -0.72200
O1404       O  0.44170298  0.61353527  0.17401530    -0.72200
O1405       O  0.42664045  0.51788765  0.17722351    -0.72200
O1406       O  0.51691736  0.98926852  0.17736997    -0.72200
O1407       O  0.47047220  0.50232954  0.19930447    -0.72100
O1408       O  0.47299283  0.00094499  0.15516538    -0.72300
V1409       V  0.48424665  0.58736914  0.17443148     1.35200
V1410       V  0.47301304  0.01347992  0.17663291     1.35200
C1411       C  0.47750014  0.52447875  0.14671242     0.77100
C1412       C  0.47779390  0.55275178  0.20544250     0.77200
C1413       C  0.53605859  0.51218955  0.17715686     0.77100
C1414       C  0.41953683  0.57482766  0.17585759     0.77000
O1415       O  0.53366293  0.58986757  0.30113328    -0.72100
O1416       O  0.44646978  0.64162357  0.29936581    -0.72300
O1417       O  0.49010215  0.62998136  0.32171157    -0.72200
O1418       O  0.49057153  0.60635389  0.27872587    -0.72200
O1419       O  0.47546350  0.51086916  0.28179432    -0.72200
O1420       O  0.47432014  0.53554146  0.32598414    -0.72200
O1421       O  0.43225954  0.54574834  0.30286735    -0.72100
O1422       O  0.51746190  0.49556377  0.30501371    -0.72300
V1423       V  0.48997154  0.61505315  0.30032315     1.35200
V1424       V  0.47526313  0.52367313  0.30386653     1.35200
C1425       C  0.54026873  0.53304690  0.30337570     0.77100
C1426       C  0.42448681  0.60123648  0.30057751     0.77200
C1427       C  0.48162995  0.58832369  0.33125892     0.77100
C1428       C  0.48265365  0.55599847  0.27274386     0.77000
O1429       O  0.28555117  0.73103044  0.17705180    -0.72100
O1430       O  0.19797339  0.78307588  0.17730597    -0.72300
O1431       O  0.24027142  0.74926396  0.19881589    -0.72200
O1432       O  0.24371348  0.77058367  0.15557869    -0.72200
O1433       O  0.22630660  0.67740832  0.15214179    -0.72200
O1434       O  0.22745205  0.65239620  0.19663129    -0.72200
O1435       O  0.18436266  0.68655677  0.17556963    -0.72100
O1436       O  0.26931235  0.63731158  0.17300296    -0.72300
V1437       V  0.24169642  0.75663451  0.17712698     1.35200
V1438       V  0.22726042  0.66515462  0.17438938     1.35200
C1439       C  0.29203066  0.67431425  0.17475781     0.77100
C1440       C  0.17620936  0.74220857  0.17645411     0.77200
C1441       C  0.23296455  0.69859870  0.20523757     0.77100
C1442       C  0.23445175  0.72976696  0.14637339     0.77000
O1443       O  0.18021115  0.65495949  0.30087709    -0.72100
O1444       O  0.26887583  0.61313197  0.30041412    -0.72300
O1445       O  0.22353922  0.62149636  0.32226105    -0.72200
O1446       O  0.22552681  0.64129552  0.27898210    -0.72200
O1447       O  0.23722866  0.73879218  0.28089902    -0.72200
O1448       O  0.23624424  0.71790202  0.32552273    -0.72200
O1449       O  0.28010687  0.71051860  0.30272800    -0.72100
O1450       O  0.19328251  0.75122778  0.30370692    -0.72300
V1451       V  0.22465912  0.63472131  0.30070533     1.35200
V1452       V  0.23637515  0.72786628  0.30317703     1.35200
C1453       C  0.17176755  0.71111665  0.30228318     0.77100
C1454       C  0.28965611  0.65569043  0.30152153     0.77200
C1455       C  0.23061092  0.66441836  0.33131915     0.77100
C1456       C  0.23233953  0.69195771  0.27242451     0.77000
O1457       O  0.17957106  0.87810968  0.80198828    -0.72100
O1458       O  0.26643113  0.82451465  0.79938690    -0.72300
O1459       O  0.22345304  0.83767974  0.82228837    -0.72200
O1460       O  0.22233812  0.86063063  0.77899096    -0.72200
O1461       O  0.23881964  0.95519025  0.78111756    -0.72200
O1462       O  0.23887720  0.93239599  0.82547692    -0.72200
O1463       O  0.28120040  0.92006294  0.80221119    -0.72100
O1464       O  0.19637306  0.97243212  0.80430055    -0.72300
V1465       V  0.22314418  0.85210913  0.80072932     1.35200
V1466       V  0.23838558  0.94325152  0.80326122     1.35200
C1467       C  0.17336127  0.93531945  0.80341331     0.77100
C1468       C  0.28857902  0.86443545  0.80016912     0.77200
C1469       C  0.23191228  0.87969811  0.83135764     0.77100
C1470       C  0.23134972  0.91030517  0.77249162     0.77000
O1471       O  0.29454853  0.94286148  0.67520129    -0.72100
O1472       O  0.20731401  0.99327636  0.67908878    -0.72300
O1473       O  0.25281782  0.95778619  0.69871576    -0.72200
O1474       O  0.24917734  0.98300605  0.65552479    -0.72200
O1475       O  0.23502732  0.88749339  0.65219744    -0.72200
O1476       O  0.23636244  0.86325021  0.69650341    -0.72200
O1477       O  0.19325694  0.89774144  0.67570971    -0.72100
O1478       O  0.27837724  0.84800485  0.67303063    -0.72300
V1479       V  0.25079551  0.96737733  0.67703947     1.35200
V1480       V  0.23619642  0.87590073  0.67437324     1.35200
C1481       C  0.30111985  0.88577468  0.67378487     0.77100
C1482       C  0.18543334  0.95275119  0.67827509     0.77200
C1483       C  0.24401437  0.90790281  0.70517218     0.77100
C1484       C  0.24079339  0.94096860  0.64646031     0.77000
O1485       O  0.53281400  0.82497178  0.80186997    -0.72100
O1486       O  0.44355211  0.86067414  0.80006483    -0.72300
O1487       O  0.48740993  0.85885192  0.82249947    -0.72200
O1488       O  0.48904561  0.83146673  0.77942882    -0.72200
O1489       O  0.47734415  0.73454386  0.78308382    -0.72200
O1490       O  0.47735880  0.76185358  0.82731463    -0.72200
O1491       O  0.43363707  0.76357805  0.80476758    -0.72100
O1492       O  0.52078282  0.72825141  0.80582224    -0.72300
V1493       V  0.48803730  0.84210762  0.80107704     1.35200
V1494       V  0.47755351  0.74889319  0.80517042     1.35200
C1495       C  0.54177195  0.76942588  0.80410306     0.77100
C1496       C  0.42339714  0.81727261  0.80216478     0.77200
C1497       C  0.48188464  0.81622691  0.83232546     0.77100
C1498       C  0.48315723  0.77946539  0.77370938     0.77000
O1499       O  0.43672284  0.72999567  0.67706721    -0.72100
O1500       O  0.52462604  0.68232139  0.67921220    -0.72300
O1501       O  0.47937396  0.71507371  0.69993763    -0.72200
O1502       O  0.48154656  0.69272580  0.65657436    -0.72200
O1503       O  0.49649843  0.78785474  0.65276194    -0.72200
O1504       O  0.49268869  0.81156363  0.69698376    -0.72200
O1505       O  0.53750400  0.77902627  0.67625504    -0.72100
O1506       O  0.45195604  0.82497319  0.67331186    -0.72300
V1507       V  0.48077905  0.70686152  0.67814579     1.35200
V1508       V  0.49434233  0.79898908  0.67489644     1.35200
C1509       C  0.42954663  0.78658503  0.67482897     0.77100
C1510       C  0.54610593  0.72366763  0.67781390     0.77200
C1511       C  0.48549197  0.76636424  0.70601631     0.77100
C1512       C  0.48992368  0.73522341  0.64719441     0.77000
O1513       O  0.78987655  0.67241581  0.67633800    -0.72100
O1514       O  0.70174956  0.71294259  0.68040961    -0.72300
O1515       O  0.74849827  0.68071155  0.69998670    -0.72200
O1516       O  0.74341862  0.70878120  0.65682156    -0.72200
O1517       O  0.73318984  0.61150658  0.65304457    -0.72200
O1518       O  0.73346713  0.58503682  0.69740339    -0.72200
O1519       O  0.68987664  0.61666339  0.67629660    -0.72100
O1520       O  0.77679268  0.57582722  0.67424589    -0.72300
V1521       V  0.74568163  0.69178507  0.67831241     1.35200
V1522       V  0.73364362  0.59901645  0.67526836     1.35200
C1523       C  0.79832546  0.61631092  0.67509867     0.77100
C1524       C  0.68082041  0.67102310  0.67892271     0.77200
C1525       C  0.74130293  0.62933999  0.70613864     0.77100
C1526       C  0.73730084  0.66593240  0.64756381     0.77000
O1527       O  0.67935853  0.62864815  0.80217625    -0.72100
O1528       O  0.76701205  0.58052970  0.80135455    -0.72300
O1529       O  0.72332814  0.59909164  0.82347610    -0.72200
O1530       O  0.72268247  0.60559051  0.77983198    -0.72200
O1531       O  0.73979388  0.70067761  0.77979021    -0.72200
O1532       O  0.73486219  0.69694459  0.82454343    -0.72200
O1533       O  0.77998380  0.67739009  0.80311057    -0.72100
O1534       O  0.69438654  0.72489009  0.80117176    -0.72300
V1535       V  0.72328280  0.60537260  0.80169919     1.35200
V1536       V  0.73687620  0.69824729  0.80213626     1.35200
C1537       C  0.67218573  0.68572124  0.80155061     0.77100
C1538       C  0.78846870  0.62170499  0.80248818     0.77200
C1539       C  0.72981300  0.64545318  0.83150896     0.77100
C1540       C  0.73175482  0.65290091  0.77231708     0.77000
O1541       O  0.93878204  0.47908202  0.67835641    -0.72100
O1542       O  0.02993267  0.95888795  0.68015411    -0.72300
O1543       O  0.98107167  0.47126083  0.70146580    -0.72200
O1544       O  0.98583017  0.96266577  0.65776540    -0.72200
O1545       O  0.99737810  0.54273938  0.65412936    -0.72200
O1546       O  0.99141757  0.56893462  0.69822733    -0.72200
O1547       O  0.03787044  0.54093109  0.67802568    -0.72100
O1548       O  0.95101089  0.57558568  0.67428001    -0.72300
V1549       V  0.98545710  0.97850056  0.67918238     1.35200
V1550       V  0.99413796  0.55520751  0.67621511     1.35200
C1551       C  0.92989409  0.53455562  0.67594197     0.77100
C1552       C  0.05035775  0.00204019  0.67826745     0.77200
C1553       C  0.98567654  0.52336070  0.70738457     0.77100
C1554       C  0.99253898  0.48895581  0.64880760     0.77000
O1555       O  0.03297401  0.57787492  0.80162588    -0.72100
O1556       O  0.94460299  0.61975023  0.80261498    -0.72300
O1557       O  0.99111989  0.61391037  0.82352283    -0.72200
O1558       O  0.98679058  0.58843589  0.78063531    -0.72200
O1559       O  0.97704404  0.49075050  0.78431295    -0.72200
O1560       O  0.97680607  0.51914419  0.82847188    -0.72200
O1561       O  0.93335482  0.52221596  0.80576530    -0.72100
O1562       O  0.02336998  0.00257081  0.80759821    -0.72300
V1563       V  0.98867207  0.59807893  0.80220549     1.35200
V1564       V  0.97709088  0.50545583  0.80636322     1.35200
C1565       C  0.04151228  0.52233328  0.80420690     0.77100
C1566       C  0.92391585  0.57708727  0.80415394     0.77200
C1567       C  0.98411429  0.57253703  0.83341224     0.77100
C1568       C  0.98167847  0.53615566  0.77494027     0.77000
O1569       O  0.79064107  0.73763075  0.55212688    -0.72100
O1570       O  0.70270513  0.68952208  0.55094715    -0.72300
O1571       O  0.74663434  0.72491433  0.52992632    -0.72200
O1572       O  0.74724481  0.69722666  0.57309662    -0.72200
O1573       O  0.73388549  0.79249119  0.57739207    -0.72200
O1574       O  0.73152320  0.81989279  0.53295395    -0.72200
O1575       O  0.69001958  0.78514380  0.55515687    -0.72100
O1576       O  0.77560408  0.83250766  0.55533374    -0.72300
V1577       V  0.74658533  0.71418919  0.55161609     1.35200
V1578       V  0.73314411  0.80574624  0.55514640     1.35200
C1579       C  0.79789368  0.79426384  0.55390300     0.77100
C1580       C  0.68137489  0.73043618  0.55278443     0.77200
C1581       C  0.73814672  0.77550191  0.52389766     0.77100
C1582       C  0.74081553  0.73894123  0.58267602     0.77000
O1583       O  0.68056251  0.82287808  0.42653527    -0.72100
O1584       O  0.76913134  0.86028627  0.43037356    -0.72300
O1585       O  0.72798073  0.85657128  0.40679272    -0.72200
O1586       O  0.72163810  0.83109387  0.45015120    -0.72200
O1587       O  0.73542190  0.73504310  0.44770685    -0.72200
O1588       O  0.73719303  0.75883531  0.40330173    -0.72200
O1589       O  0.77985343  0.76382979  0.42626188    -0.72100
O1590       O  0.69275883  0.72587881  0.42471106    -0.72300
V1591       V  0.72498036  0.84083472  0.42837961     1.35200
V1592       V  0.73598603  0.74768197  0.42553876     1.35200
C1593       C  0.67163780  0.76699977  0.42525394     0.77100
C1594       C  0.78966348  0.81773987  0.42886692     0.77200
C1595       C  0.73388392  0.81303927  0.39762968     0.77100
C1596       C  0.72863198  0.78011004  0.45648645     0.77000
O1597       O  0.03465994  0.87909760  0.42727890    -0.72100
O1598       O  0.94795903  0.82180358  0.43018536    -0.72300
O1599       O  0.99115036  0.83653230  0.40712830    -0.72200
O1600       O  0.99186575  0.85921706  0.45029714    -0.72200
O1601       O  0.97582472  0.95389015  0.44753363    -0.72200
O1602       O  0.97392146  0.92994075  0.40339118    -0.72200
O1603       O  0.93285873  0.91699988  0.42712516    -0.72100
O1604       O  0.01699767  0.97208076  0.42369946    -0.72300
V1605       V  0.99120358  0.85095745  0.42863104     1.35200
V1606       V  0.97534545  0.94143520  0.42546822     1.35200
C1607       C  0.04037339  0.93657665  0.42514655     0.77100
C1608       C  0.92557109  0.86112164  0.42935476     0.77200
C1609       C  0.98153358  0.87771585  0.39784608     0.77100
C1610       C  0.98342448  0.90904386  0.45646286     0.77000
O1611       O  0.93469999  0.94764822  0.55350916    -0.72100
O1612       O  0.02277658  0.99318056  0.55046609    -0.72300
O1613       O  0.97728441  0.96272370  0.53039290    -0.72200
O1614       O  0.98002597  0.98296844  0.57363014    -0.72200
O1615       O  0.99401173  0.88717996  0.57706065    -0.72200
O1616       O  0.98991662  0.86597846  0.53281644    -0.72200
O1617       O  0.03509917  0.89625548  0.55304031    -0.72100
O1618       O  0.94905830  0.85218212  0.55678123    -0.72300
V1619       V  0.97888703  0.96975481  0.55209212     1.35200
V1620       V  0.99169404  0.87721755  0.55490634     1.35200
C1621       C  0.92702061  0.89101188  0.55530484     0.77100
C1622       C  0.04398281  0.95149718  0.55112770     0.77200
C1623       C  0.98318912  0.91189025  0.52405288     0.77100
C1624       C  0.98819812  0.93995892  0.58275633     0.77000
O1625       O  0.17771710  0.57689980  0.42600733    -0.72100
O1626       O  0.26432436  0.63089186  0.42917484    -0.72300
O1627       O  0.22186877  0.62487625  0.40612662    -0.72200
O1628       O  0.21976894  0.58731521  0.44887023    -0.72200
O1629       O  0.23701647  0.49427340  0.44471218    -0.72200
O1630       O  0.23717124  0.53176012  0.40091217    -0.72200
O1631       O  0.27944111  0.53726641  0.42397474    -0.72100
O1632       O  0.19463527  0.48382014  0.42174966    -0.72300
V1633       V  0.22116578  0.60318818  0.42739443     1.35200
V1634       V  0.23664536  0.51354778  0.42285335     1.35200
C1635       C  0.17166454  0.51993179  0.42396634     0.77100
C1636       C  0.28654235  0.59179901  0.42750716     0.77200
C1637       C  0.23032108  0.58600386  0.39613402     0.77100
C1638       C  0.22846206  0.53571142  0.45420906     0.77000
O1639       O  0.29160448  0.48269625  0.54968327    -0.72100
O1640       O  0.20123485  0.95436832  0.54812644    -0.72300
O1641       O  0.24961642  0.47231321  0.52665196    -0.72200
O1642       O  0.24483862  0.95884187  0.57058745    -0.72200
O1643       O  0.23469569  0.54111056  0.57377268    -0.72200
O1644       O  0.23427305  0.56742631  0.52955272    -0.72200
O1645       O  0.19146064  0.53443335  0.55123848    -0.72100
O1646       O  0.27755936  0.57851693  0.55210186    -0.72300
V1647       V  0.24521229  0.97801191  0.54924573     1.35200
V1648       V  0.23484337  0.55359214  0.55161141     1.35200
C1649       C  0.29944002  0.53913253  0.55113307     0.77100
C1650       C  0.18002185  0.99522643  0.55032707     0.77200
C1651       C  0.24184140  0.52333929  0.52063753     0.77100
C1652       C  0.23835375  0.99953185  0.58039869     0.77000
O1653       O  0.43684830  0.68707114  0.55156597    -0.72100
O1654       O  0.52495255  0.73238365  0.55016232    -0.72300
O1655       O  0.48034814  0.70537109  0.52915034    -0.72200
O1656       O  0.48085452  0.71874459  0.57253469    -0.72200
O1657       O  0.49626238  0.62361268  0.57527246    -0.72200
O1658       O  0.49135511  0.60734486  0.53076136    -0.72200
O1659       O  0.53699722  0.63471146  0.55108694    -0.72100
O1660       O  0.45093129  0.59132127  0.55485724    -0.72300
V1661       V  0.48100154  0.70900155  0.55090593     1.35200
V1662       V  0.49359898  0.61601681  0.55298007     1.35200
C1663       C  0.42908705  0.63050148  0.55331627     0.77100
C1664       C  0.54593579  0.69021898  0.55034488     0.77200
C1665       C  0.48478526  0.65476627  0.52246971     0.77100
C1666       C  0.48954339  0.67529107  0.58139983     0.77000
O1667       O  0.53058276  0.62975013  0.42549763    -0.72100
O1668       O  0.44138120  0.59287508  0.42775579    -0.72300
O1669       O  0.48498326  0.60412937  0.40496249    -0.72200
O1670       O  0.48759626  0.61380876  0.44836811    -0.72200
O1671       O  0.47630254  0.71179956  0.44739932    -0.72200
O1672       O  0.47458531  0.70227064  0.40277715    -0.72200
O1673       O  0.43174095  0.69133903  0.42588709    -0.72100
O1674       O  0.51897040  0.72731190  0.42409993    -0.72300
V1675       V  0.48591369  0.61206746  0.42661206     1.35200
V1676       V  0.47564138  0.70634484  0.42508766     1.35200
C1677       C  0.53984349  0.68571502  0.42446137     0.77100
C1678       C  0.42140001  0.63679684  0.42692499     0.77200
C1679       C  0.47942511  0.65040851  0.39640207     0.77100
C1680       C  0.48269215  0.66348693  0.45538960     0.77000
O1681       O  0.17614261  0.82673716  0.92559361    -0.72100
O1682       O  0.26345176  0.87540637  0.92942027    -0.72300
O1683       O  0.22313041  0.86287278  0.90583427    -0.72200
O1684       O  0.21594700  0.84425436  0.94906814    -0.72200
O1685       O  0.23254376  0.74925277  0.94796924    -0.72200
O1686       O  0.23581118  0.76611093  0.90338326    -0.72200
O1687       O  0.27698173  0.77940583  0.92669697    -0.72100
O1688       O  0.19140544  0.73095182  0.92455724    -0.72300
V1689       V  0.21989510  0.85040713  0.92741255     1.35200
V1690       V  0.23380867  0.75816025  0.92567816     1.35200
C1691       C  0.16912826  0.76963454  0.92468600     0.77100
C1692       C  0.28519390  0.83480215  0.92856658     0.77200
C1693       C  0.23075504  0.81886558  0.89716298     0.77100
C1694       C  0.22371904  0.79519018  0.95600925     0.77000
O1695       O  0.28471328  0.78767076  0.05232278    -0.72100
O1696       O  0.19590751  0.74556531  0.04879475    -0.72300
O1697       O  0.24388974  0.77245859  0.02900485    -0.72200
O1698       O  0.23715085  0.75463228  0.07217276    -0.72200
O1699       O  0.22852700  0.85294758  0.07477966    -0.72200
O1700       O  0.22714221  0.86733949  0.02999817    -0.72200
O1701       O  0.18474366  0.84199281  0.05252825    -0.72100
O1702       O  0.27102826  0.88443468  0.05211639    -0.72300
V1703       V  0.24024609  0.76689714  0.05064219     1.35200
V1704       V  0.22822079  0.85997821  0.05235820     1.35200
C1705       C  0.29272593  0.84459462  0.05215733     0.77100
C1706       C  0.17509865  0.78795834  0.05021220     0.77200
C1707       C  0.23550419  0.82092226  0.02199422     0.77100
C1708       C  0.23190413  0.79946334  0.08095733     0.77000
O1709       O  0.67491187  0.60539406  0.92833524    -0.72100
O1710       O  0.76374532  0.64651242  0.92985289    -0.72300
O1711       O  0.71972148  0.64154689  0.90743762    -0.72200
O1712       O  0.71857714  0.61555087  0.95064752    -0.72200
O1713       O  0.73143406  0.51918719  0.94793456    -0.72200
O1714       O  0.73117015  0.54526185  0.90358549    -0.72200
O1715       O  0.77450028  0.54964135  0.92617892    -0.72100
O1716       O  0.68804343  0.50944093  0.92535800    -0.72300
V1717       V  0.71940547  0.62540508  0.92896875     1.35200
V1718       V  0.73094809  0.53271262  0.92579110     1.35200
C1719       C  0.66650974  0.54923925  0.92681565     0.77100
C1720       C  0.78423317  0.60370270  0.92848983     0.77200
C1721       C  0.72574326  0.59909349  0.89803278     0.77100
C1722       C  0.72558005  0.56438712  0.95682782     0.77000
O1723       O  0.73054201  0.57803526  0.07720167    -0.72100
O1724       O  0.72822416  0.60202592  0.03289363    -0.72300
O1725       O  0.68652018  0.56963285  0.05528499    -0.72200
O1726       O  0.77229969  0.61568884  0.05492002    -0.72200
O1727       O  0.78694736  0.51994441  0.05272020    -0.72200
O1728       O  0.69724471  0.98842479  0.05070353    -0.72200
O1729       O  0.74360561  0.50699067  0.03027247    -0.72100
O1730       O  0.74228748  0.48179335  0.07346752    -0.72300
V1731       V  0.72976891  0.58954086  0.05502310     1.35200
V1732       V  0.74269543  0.49742683  0.05196649     1.35200
C1733       C  0.73582081  0.52434644  0.08280758     0.77100
C1734       C  0.73531236  0.55733292  0.02405519     0.77200
C1735       C  0.67754814  0.51487907  0.05328313     0.77100
C1736       C  0.79434183  0.57689312  0.05370443     0.77000
O1737       O  0.53000052  0.89720343  0.92845826    -0.72100
O1738       O  0.44261500  0.84483422  0.92908769    -0.78700
O1739       O  0.48912583  0.85262775  0.90728081    -0.72200
O1740       O  0.48366473  0.88451616  0.95014041    -0.72200
O1741       O  0.47083737  0.98034324  0.94542047    -0.72200
O1742       O  0.47264948  0.94516521  0.90171986    -0.72200
O1743       O  0.42899937  0.94012753  0.92475336    -0.72100
O1744       O  0.51444322  0.98994060  0.92239437    -0.72300
V1745       V  0.48618077  0.87159384  0.92859520     1.35200
V1746       V  0.47209980  0.96208014  0.92362360     1.35200
C1747       C  0.53691775  0.95349930  0.92540896     0.77100
C1748       C  0.42080297  0.88497628  0.92752739     0.77200
C1749       C  0.48106466  0.89197171  0.89710063     0.77100
C1750       C  0.47591215  0.93675122  0.95515150     0.77000
O1751       O  0.43077608  0.99057450  0.05015457    -0.72100
O1752       O  0.51948086  0.03492935  0.04816635    -0.72300
O1753       O  0.47516915  0.00299081  0.02748823    -0.72200
O1754       O  0.47500399  0.02787593  0.07063570    -0.72200
O1755       O  0.49115558  0.93375680  0.07472418    -0.72200
O1756       O  0.48437279  0.90476921  0.03088460    -0.72200
O1757       O  0.53095805  0.93714768  0.05003285    -0.72100
O1758       O  0.44475029  0.89630924  0.05565983    -0.72300
V1759       V  0.47524002  0.01228852  0.04917651     1.35200
V1760       V  0.48748252  0.91980486  0.05278306     1.35200
C1761       C  0.42287610  0.93489040  0.05345783     0.77100
C1762       C  0.54025068  0.99225325  0.04851620     0.77200
C1763       C  0.47995276  0.95063317  0.02174568     0.77100
C1764       C  0.48436800  0.98682270  0.08002752     0.77000
O1765       O  0.03060361  0.62473920  0.92761303    -0.72100
O1766       O  0.94120003  0.58935945  0.93155130    -0.72300
O1767       O  0.98358254  0.59188975  0.90810260    -0.72200
O1768       O  0.98851656  0.61711021  0.95111300    -0.72200
O1769       O  0.97426555  0.71307613  0.94806885    -0.72200
O1770       O  0.97645851  0.69020118  0.90382690    -0.72200
O1771       O  0.93179396  0.68583172  0.92622985    -0.72100
O1772       O  0.01870596  0.72229121  0.92568582    -0.72300
V1773       V  0.98580552  0.60754024  0.92949463     1.35200
V1774       V  0.97556591  0.70101319  0.92599044     1.35200
C1775       C  0.03955341  0.68097142  0.92670726     0.77100
C1776       C  0.92120225  0.63254086  0.92930621     0.77200
C1777       C  0.97923586  0.63575009  0.89858978     0.77100
C1778       C  0.98177899  0.66828440  0.95704275     0.77000
O1779       O  0.93039138  0.72718175  0.05198815    -0.72100
O1780       O  0.01805016  0.77732046  0.04832481    -0.72300
O1781       O  0.97334351  0.73711105  0.02896699    -0.72200
O1782       O  0.97436445  0.77286117  0.07142596    -0.72200
O1783       O  0.99057712  0.68023403  0.07714461    -0.72200
O1784       O  0.98677366  0.64172943  0.03354343    -0.72200
O1785       O  0.03149003  0.68199785  0.05287582    -0.72100
O1786       O  0.94627657  0.63466542  0.05791094    -0.72300
V1787       V  0.97430603  0.75184473  0.05032426     1.35200
V1788       V  0.98846497  0.66145346  0.05531327     1.35200
C1789       C  0.92364133  0.67103535  0.05537463     0.77100
C1790       C  0.03972414  0.73664054  0.04964436     0.77200
C1791       C  0.97919474  0.68423851  0.02387780     0.77100
C1792       C  0.98289844  0.73416509  0.08160231     0.77000
C1793       C  0.00235746  0.64246612  0.99954523    -0.26700
C1794       C  0.97799317  0.67539440  0.00690669    -0.14700
C1795       C  0.95492677  0.70635714  0.99769283     0.35900
C1796       C  0.95724010  0.70507559  0.98146473    -0.26100
C1797       C  0.98193854  0.67337338  0.97411159    -0.15300
C1798       C  0.00473280  0.64147505  0.98318752     0.37000
N1799       N  0.03049949  0.60922836  0.97574674    -0.89600
H1800       H  0.02027737  0.61967142  0.00655342     0.18100
H1801       H  0.93920413  0.72799015  0.97454659     0.18100
N1802       N  0.92833209  0.73805008  0.00444008    -0.88600
H1803       H  0.04511581  0.58825304  0.98406610     0.35500
H1804       H  0.04449360  0.64217377  0.96978892     0.40600
H1805       H  0.93634634  0.77692460  0.01033957     0.40200
H1806       H  0.91665607  0.70802239  0.01230324     0.35100
C1807       C  0.49402978  0.98707029  0.97895544    -0.26700
C1808       C  0.47354702  0.94468671  0.97207580    -0.14700
C1809       C  0.45558802  0.90291974  0.98162836     0.35900
C1810       C  0.45947324  0.90355327  0.99782927    -0.26100
C1811       C  0.48035042  0.94535917  0.00469875    -0.15300
C1812       C  0.49820594  0.98727660  0.99512334     0.37000
N1813       N  0.52147607  0.02920948  0.00126559    -0.89600
H1814       H  0.50837371  0.01783492  0.97163431     0.18100
H1815       H  0.44527701  0.87250891  0.00514271     0.18100
N1816       N  0.43303799  0.85985147  0.97535937    -0.88600
H1817       H  0.54333995  0.01903585  0.99598287     0.35500
H1818       H  0.52499978  0.02184481  0.01316562     0.40600
H1819       H  0.43038837  0.86611837  0.96335347     0.40200
H1820       H  0.41078354  0.86981630  0.98025140     0.35100
C1821       C  0.62901362  0.97163371  0.04190618    -0.26700
C1822       C  0.64128747  0.01751042  0.05154796    -0.14700
C1823       C  0.62198891  0.53959891  0.06211328     0.35900
C1824       C  0.58705906  0.05041251  0.05763228    -0.26100
C1825       C  0.57480722  0.00456563  0.04806640    -0.15300
C1826       C  0.59592719  0.96475095  0.04007681     0.37000
N1827       N  0.58361769  0.91776502  0.03005915    -0.89600
H1828       H  0.64522679  0.94227799  0.03549209     0.18100
H1829       H  0.57298326  0.56139012  0.06715090     0.18100
N1830       N  0.63419202  0.58329209  0.07307186    -0.88600
H1831       H  0.60216146  0.89242586  0.02506425     0.35500
H1832       H  0.57193330  0.94011203  0.02087124     0.40600
H1833       H  0.64576318  0.55809537  0.08182374     0.40200
H1834       H  0.61566118  0.60712121  0.07854081     0.35100
C1835       C  0.85123123  0.56458870  0.06082200    -0.26700
C1836       C  0.82760548  0.59957057  0.05355620    -0.14700
C1837       C  0.83543707  0.65858246  0.04714610     0.35900
C1838       C  0.86661328  0.68150810  0.04836484    -0.26100
C1839       C  0.89045531  0.64662036  0.05561948    -0.15300
C1840       C  0.88235031  0.58710922  0.06196398     0.37000
N1841       N  0.90480466  0.54847659  0.06990106    -0.89600
H1842       H  0.84534226  0.51977992  0.06595255     0.18100
H1843       H  0.87245473  0.72634737  0.04325688     0.18100
N1844       N  0.81177626  0.69474053  0.03918896    -0.88600
H1845       H  0.91494272  0.57340943  0.07895901     0.35500
H1846       H  0.92241166  0.53465252  0.06200871     0.40600
H1847       H  0.80520004  0.67051318  0.02925245     0.40200
H1848       H  0.82127675  0.73703388  0.03525957     0.35100
C1849       C  0.83815949  0.56216966  0.93327104    -0.26700
C1850       C  0.81894154  0.61366649  0.92965021    -0.14700
C1851       C  0.83341321  0.67132568  0.92657229     0.35900
C1852       C  0.86671467  0.67582290  0.92687997    -0.26100
C1853       C  0.88611785  0.62380857  0.92999988    -0.15300
C1854       C  0.87129116  0.56644050  0.93344726     0.37000
N1855       N  0.88893495  0.51160139  0.93708263    -0.89600
H1856       H  0.82735101  0.51753373  0.93587482     0.18100
H1857       H  0.87751105  0.72045127  0.92432044     0.18100
N1858       N  0.81449133  0.72466516  0.92277061    -0.88600
H1859       H  0.90284443  0.51984649  0.94687436     0.35500
H1860       H  0.90363606  0.50118047  0.92757398     0.40600
H1861       H  0.80367087  0.71649654  0.91206394     0.40200
H1862       H  0.82888110  0.76380862  0.92111185     0.35100
C1863       C  0.62743798  0.96745038  0.92642124    -0.26700
C1864       C  0.63280475  0.52783990  0.92677532    -0.14700
C1865       C  0.60655043  0.56839298  0.92707279     0.35900
C1866       C  0.57437315  0.04335283  0.92511174    -0.26100
C1867       C  0.56999377  0.97852293  0.92554855    -0.15300
C1868       C  0.59701871  0.94022171  0.92618833     0.37000
N1869       N  0.59369089  0.87395686  0.92647894    -0.89600
H1870       H  0.64791284  0.93724507  0.92695687     0.18100
H1871       H  0.55397248  0.07381876  0.92469972     0.18100
N1872       N  0.61015841  0.63424978  0.92768563    -0.88600
H1873       H  0.61589348  0.85262642  0.92740455     0.35500
H1874       H  0.58451007  0.86096889  0.91572052     0.40600
H1875       H  0.62336852  0.64931190  0.91794365     0.40200
H1876       H  0.62226916  0.64534512  0.93786227     0.35100
C1877       C  0.72749942  0.61655354  0.98237501    -0.26700
C1878       C  0.72769327  0.56067320  0.97404077    -0.14700
C1879       C  0.73064919  0.50418838  0.98226551     0.35900
C1880       C  0.73353673  0.50496495  0.99854092    -0.26100
C1881       C  0.73322910  0.56083623  0.00686100    -0.15300
C1882       C  0.73040840  0.61731941  0.99864208     0.37000
N1883       N  0.73083294  0.67517217  0.00672580    -0.89600
H1884       H  0.72558352  0.66038214  0.97616076     0.18100
H1885       H  0.73549226  0.46119196  0.00478014     0.18100
N1886       N  0.73045060  0.44633963  0.97418384    -0.88600
H1887       H  0.72778793  0.71232240  0.99893526     0.35500
H1888       H  0.75346705  0.68040499  0.01147098     0.40600
H1889       H  0.70781799  0.44072715  0.96946940     0.40200
H1890       H  0.73057343  0.91996435  0.98138565     0.35100
C1891       C  0.12931506  0.71659931  0.04611852    -0.26700
C1892       C  0.14024440  0.77641715  0.04916045    -0.14700
C1893       C  0.11754688  0.82486845  0.05088780     0.35900
C1894       C  0.08487442  0.81139066  0.05017903    -0.26100
C1895       C  0.07412134  0.75095553  0.04799624    -0.15300
C1896       C  0.09670077  0.70351506  0.04543726     0.37000
N1897       N  0.08669683  0.64172803  0.04204936    -0.89600
H1898       H  0.14613529  0.67939623  0.04434607     0.18100
H1899       H  0.06771251  0.84794919  0.05201561     0.18100
N1900       N  0.12742976  0.88757879  0.05359240    -0.88600
H1901       H  0.09604398  0.61188234  0.05053630     0.35500
H1902       H  0.09641874  0.62968124  0.03123434     0.40600
H1903       H  0.13625030  0.88914235  0.06493927     0.40200
H1904       H  0.10800168  0.91765204  0.05333807     0.35100
C1905       C  0.34928133  0.83341691  0.06033760    -0.26700
C1906       C  0.32626100  0.86637783  0.05203492    -0.14700
C1907       C  0.33485060  0.92323355  0.04460473     0.35900
C1908       C  0.36607199  0.94606240  0.04582683    -0.26100
C1909       C  0.38922252  0.91310534  0.05407968    -0.15300
C1910       C  0.38052607  0.85636309  0.06161970     0.37000
N1911       N  0.40331135  0.82242323  0.07072189    -0.89600
H1912       H  0.34261920  0.79053127  0.06624155     0.18100
H1913       H  0.37259991  0.98888683  0.03986177     0.18100
N1914       N  0.31194752  0.95714478  0.03555746    -0.88600
H1915       H  0.39326510  0.78160222  0.07529283     0.35500
H1916       H  0.40921349  0.84963571  0.08026151     0.40600
H1917       H  0.30591195  0.92992437  0.02603862     0.40200
H1918       H  0.32192486  0.99798497  0.03096233     0.35100
C1919       C  0.34132939  0.80001324  0.93098516    -0.26700
C1920       C  0.31966321  0.84946672  0.92946052    -0.14700
C1921       C  0.33154398  0.91037486  0.92825486     0.35900
C1922       C  0.36455786  0.92009274  0.92806970    -0.26100
C1923       C  0.38627712  0.87049624  0.92892262    -0.15300
C1924       C  0.37439013  0.80978102  0.93085025     0.37000
N1925       N  0.39566952  0.75817597  0.93244913    -0.89600
H1926       H  0.33247226  0.75304057  0.93222404     0.18100
H1927       H  0.37330304  0.96715953  0.92691767     0.18100
N1928       N  0.31029553  0.96214609  0.92690262    -0.88600
H1929       H  0.38299043  0.71648654  0.93308057     0.35500
H1930       H  0.40709818  0.76243789  0.94315510     0.40600
H1931       H  0.29927128  0.95940998  0.91605796     0.40200
H1932       H  0.32293850  0.00390354  0.92678049     0.35100
C1933       C  0.11286473  0.77877814  0.93315979    -0.26700
C1934       C  0.13587530  0.74714775  0.92451956    -0.14700
C1935       C  0.12750015  0.69118654  0.91712560     0.35900
C1936       C  0.09619824  0.66836065  0.91851999    -0.26100
C1937       C  0.07318523  0.70058804  0.92701098    -0.15300
C1938       C  0.08175772  0.75571407  0.93467720     0.37000
N1939       N  0.05885315  0.78762806  0.94418440    -0.89600
H1940       H  0.11944624  0.82060638  0.93917906     0.18100
H1941       H  0.08947758  0.62654192  0.91253741     0.18100
N1942       N  0.15062819  0.65835561  0.90799050    -0.88600
H1943       H  0.06890633  0.82724274  0.94899637     0.35500
H1944       H  0.05267621  0.75821844  0.95354427     0.40600
H1945       H  0.15667045  0.68661099  0.89840640     0.40200
H1946       H  0.14075446  0.61797385  0.90349585     0.35100
C1947       C  0.25123825  0.77222464  0.98061806    -0.26700
C1948       C  0.22444790  0.79566514  0.97310670    -0.14700
C1949       C  0.20177678  0.83024542  0.98161116     0.35900
C1950       C  0.20687909  0.84200578  0.99745512    -0.26100
C1951       C  0.23389630  0.81907780  0.00491297    -0.15300
C1952       C  0.25621509  0.78386928  0.99641012     0.37000
N1953       N  0.28428655  0.76064673  0.00376894    -0.89600
H1954       H  0.26910909  0.74720109  0.97405810     0.18100
H1955       H  0.18918426  0.86699546  0.00413001     0.18100
N1956       N  0.17366902  0.85311408  0.97407973    -0.88600
H1957       H  0.30406965  0.77851971  0.99771219     0.35500
H1958       H  0.28447058  0.71249780  0.00269644     0.40600
H1959       H  0.15944546  0.87752425  0.98194009     0.40200
H1960       H  0.16036181  0.81479252  0.97063747     0.35100
C1961       C  0.50393431  0.61785062  0.49678665    -0.26700
C1962       C  0.48252986  0.65357648  0.50535001    -0.14700
C1963       C  0.46113723  0.69336455  0.49742970     0.35900
C1964       C  0.46241331  0.69803793  0.48108588    -0.26100
C1965       C  0.48404819  0.66274079  0.47254152    -0.15300
C1966       C  0.50496811  0.62226803  0.48047365     0.37000
N1967       N  0.52790806  0.58670192  0.47200208    -0.89600
H1968       H  0.52066422  0.58802232  0.50277732     0.18100
H1969       H  0.44586267  0.72787462  0.47498098     0.18100
N1970       N  0.43796022  0.72835128  0.50602867    -0.88600
H1971       H  0.55055145  0.59867619  0.47589701     0.35500
H1972       H  0.52403610  0.53990062  0.47469366     0.40600
H1973       H  0.42248837  0.69675931  0.51154694     0.40200
H1974       H  0.42415049  0.75527474  0.49848084     0.35100
C1975       C  0.39003170  0.54511196  0.55037986    -0.26700
C1976       C  0.39569947  0.60839972  0.55308205    -0.14700
C1977       C  0.36966697  0.64825324  0.55521339     0.35900
C1978       C  0.33871445  0.62408310  0.55448765    -0.26100
C1979       C  0.33296598  0.56079485  0.55171951    -0.15300
C1980       C  0.35907436  0.52095563  0.54953742     0.37000
N1981       N  0.35428483  0.45644159  0.54636196    -0.89600
H1982       H  0.40992582  0.51419783  0.54857738     0.18100
H1983       H  0.31891033  0.65525967  0.55621102     0.18100
N1984       N  0.37459869  0.71284036  0.55824488    -0.88600
H1985       H  0.37604118  0.43328794  0.54567323     0.35500
H1986       H  0.34414426  0.45358896  0.53530968     0.40600
H1987       H  0.38546239  0.71597971  0.56912128     0.40200
H1988       H  0.35287197  0.73594852  0.55920128     0.35100
C1989       C  0.33265149  0.65862507  0.42111016    -0.26700
C1990       C  0.32033630  0.60753505  0.42936880    -0.14700
C1991       C  0.34137382  0.56685269  0.43731925     0.35900
C1992       C  0.37424034  0.57600894  0.43583068    -0.26100
C1993       C  0.38666239  0.62629333  0.42727897    -0.15300
C1994       C  0.36561380  0.66841607  0.41989831     0.37000
N1995       N  0.37775745  0.71987067  0.41077682    -0.89600
H1996       H  0.31657289  0.68919909  0.41492215     0.18100
H1997       H  0.39016566  0.54455721  0.44183414     0.18100
N1998       N  0.33034851  0.51636708  0.44714091    -0.88600
H1999       H  0.35916732  0.74648270  0.40627856     0.35500
H2000       H  0.39002555  0.70186106  0.40119176     0.40600
H2001       H  0.30576878  0.51767307  0.44877953     0.40200
H2002       H  0.33971565  0.52284738  0.45825302     0.35100
C2003       C  0.21433872  0.56092500  0.49714278    -0.26700
C2004       C  0.23985763  0.52855411  0.50358703    -0.14700
C2005       C  0.26064354  0.49492425  0.49380457     0.35900
C2006       C  0.25528501  0.49431145  0.47768102    -0.26100
C2007       C  0.22995560  0.52738826  0.47122275    -0.15300
C2008       C  0.20891968  0.56017934  0.48106453     0.37000
N2009       N  0.18200400  0.59228964  0.47467546    -0.89600
H2010       H  0.19795211  0.58513492  0.50474068     0.18100
H2011       H  0.27163972  0.47005369  0.47008797     0.18100
N2012       N  0.28736369  0.46243283  0.50026309    -0.88600
H2013       H  0.16900668  0.61415882  0.48347157     0.35500
H2014       H  0.16692870  0.55911715  0.46991492     0.40600
H2015       H  0.29849845  0.01025237  0.50615739     0.40200
H2016       H  0.29453264  0.95510528  0.49274436     0.35100
C2017       C  0.09958653  0.91485539  0.54764267    -0.26700
C2018       C  0.07855229  0.96478938  0.54992276    -0.14700
C2019       C  0.09117777  0.02459966  0.55187814     0.35900
C2020       C  0.12428502  0.03268559  0.55186444    -0.26100
C2021       C  0.14533724  0.98261433  0.54983813    -0.15300
C2022       C  0.13266382  0.92319158  0.54759885     0.37000
N2023       N  0.15309705  0.87101113  0.54547324    -0.89600
H2024       H  0.09037685  0.86851083  0.54603637     0.18100
H2025       H  0.13639857  0.56484183  0.54644485     0.18100
N2026       N  0.07059680  0.07667061  0.55432513    -0.88600
H2027       H  0.14771279  0.85108946  0.53477276     0.35500
H2028       H  0.14794999  0.83846784  0.55430221     0.40600
H2029       H  0.05881616  0.08545960  0.54385271     0.40200
H2030       H  0.08654924  0.60439455  0.54693788     0.35100
C2031       C  0.09920425  0.92262759  0.42606274    -0.26700
C2032       C  0.07329969  0.96283913  0.42459598    -0.14700
C2033       C  0.08228248  0.51141137  0.42004864     0.35900
C2034       C  0.11360122  0.53324845  0.42004071    -0.26100
C2035       C  0.13876969  0.49493351  0.42438571    -0.15300
C2036       C  0.13066597  0.94494993  0.42623156     0.37000
N2037       N  0.15635943  0.90201035  0.42843036    -0.89600
H2038       H  0.09493048  0.87333611  0.42736506     0.18100
H2039       H  0.11830002  0.58076291  0.41645450     0.18100
N2040       N  0.05826932  0.55437836  0.41527447    -0.88600
H2041       H  0.14793492  0.85642804  0.42896824     0.35500
H2042       H  0.16627889  0.91080411  0.43931349     0.40600
H2043       H  0.04267339  0.56202454  0.42461827     0.40200
H2044       H  0.04602526  0.53623154  0.40582043     0.35100
C2045       C  0.98481053  0.85537696  0.48218434    -0.26700
C2046       C  0.98222418  0.91164180  0.47372410    -0.14700
C2047       C  0.97896667  0.96716497  0.48203150     0.35900
C2048       C  0.97921095  0.96526521  0.49831854    -0.26100
C2049       C  0.98250991  0.90911313  0.50678184    -0.15300
C2050       C  0.98501498  0.85343907  0.49846069     0.37000
N2051       N  0.98759725  0.79419606  0.50605887    -0.89600
H2052       H  0.98678001  0.81186435  0.47612311     0.18100
H2053       H  0.97707752  0.00876215  0.50437045     0.18100
N2054       N  0.97585129  0.02622968  0.47439764    -0.88600
H2055       H  0.96789923  0.78764045  0.51345423     0.35500
H2056       H  0.00841581  0.79329984  0.51259899     0.40600
H2057       H  0.95521610  0.02601463  0.46771875     0.40200
H2058       H  0.99563498  0.03363617  0.46710499     0.35100
C2059       C  0.84543172  0.77918158  0.42726251    -0.26700
C2060       C  0.82443462  0.82887789  0.43000488    -0.14700
C2061       C  0.83718948  0.88707829  0.43381369     0.35900
C2062       C  0.87027775  0.89440898  0.43437452    -0.26100
C2063       C  0.89126627  0.84567907  0.43083024    -0.15300
C2064       C  0.87847921  0.78696075  0.42756736     0.37000
N2065       N  0.89819749  0.73497818  0.42403818    -0.89600
H2066       H  0.83619075  0.73381272  0.42451037     0.18100
H2067       H  0.87973978  0.93955135  0.43718273     0.18100
N2068       N  0.81678029  0.93880314  0.43697066    -0.88600
H2069       H  0.91275952  0.72587644  0.43359948     0.35500
H2070       H  0.91244242  0.74625556  0.41432684     0.40600
H2071       H  0.80628569  0.95201834  0.42643774     0.40200
H2072       H  0.83002799  0.97700696  0.44053744     0.35100
C2073       C  0.63033343  0.68452610  0.42694047    -0.26700
C2074       C  0.63767842  0.74781358  0.42464822    -0.14700
C2075       C  0.61259906  0.78949645  0.42164560     0.35900
C2076       C  0.58132937  0.76748317  0.42130561    -0.26100
C2077       C  0.57391402  0.70440158  0.42389579    -0.15300
C2078       C  0.59891524  0.66229921  0.42650190     0.37000
N2079       N  0.59250553  0.59744791  0.42894526    -0.89600
H2080       H  0.64925511  0.65178669  0.42917942     0.18100
H2081       H  0.56258272  0.80065519  0.41908502     0.18100
N2082       N  0.61790460  0.85418125  0.41872173    -0.88600
H2083       H  0.61342601  0.57346346  0.43147218     0.35500
H2084       H  0.58437018  0.57997653  0.41839564     0.40600
H2085       H  0.63354388  0.85930018  0.40922150     0.40200
H2086       H  0.62802932  0.87361576  0.42860173     0.35100
C2087       C  0.62605571  0.76010391  0.55922740    -0.26700
C2088       C  0.64686498  0.71763974  0.55212151    -0.14700
C2089       C  0.63416158  0.66774544  0.54380740     0.35900
C2090       C  0.60098043  0.66080192  0.54308902    -0.26100
C2091       C  0.58031631  0.70335471  0.55021401    -0.15300
C2092       C  0.59297723  0.75342963  0.55840649     0.37000
N2093       N  0.57232990  0.79615424  0.56625771    -0.89600
H2094       H  0.63564721  0.79859766  0.56565407     0.18100
H2095       H  0.59112645  0.62205467  0.53684662     0.18100
N2096       N  0.65477603  0.62511045  0.53592679    -0.88600
H2097       H  0.58553887  0.83083685  0.57160611     0.35500
H2098       H  0.56051116  0.77174544  0.57522636     0.40600
H2099       H  0.66654002  0.64966754  0.52696794     0.40200
H2100       H  0.64151356  0.59056939  0.53055202     0.35100
C2101       C  0.83645769  0.88201816  0.55320927    -0.26700
C2102       C  0.83119716  0.81753828  0.55433108    -0.14700
C2103       C  0.85751055  0.77799885  0.55608246     0.35900
C2104       C  0.88822973  0.80364645  0.55647637    -0.26100
C2105       C  0.89356689  0.86812639  0.55523887    -0.15300
C2106       C  0.86719512  0.90770196  0.55352389     0.37000
N2107       N  0.87146830  0.97360734  0.55207603    -0.89600
H2108       H  0.81642580  0.91294355  0.55183991     0.18100
H2109       H  0.90820320  0.77254574  0.55777300     0.18100
N2110       N  0.85312671  0.71213406  0.55757265    -0.88600
H2111       H  0.84949799  0.99609307  0.55177943     0.35500
H2112       H  0.88238956  0.98262294  0.54125840     0.40600
H2113       H  0.84131135  0.70339416  0.56817842     0.40200
H2114       H  0.87504036  0.68960572  0.55829487     0.35100
C2115       C  0.75141718  0.73396794  0.49780158    -0.26700
C2116       C  0.73567617  0.77932337  0.50664672    -0.14700
C2117       C  0.71638542  0.82301436  0.49892940     0.35900
C2118       C  0.71395712  0.82118788  0.48258129    -0.26100
C2119       C  0.72993815  0.77605081  0.47375533    -0.15300
C2120       C  0.74887961  0.73190197  0.48151076     0.37000
N2121       N  0.76610494  0.68604498  0.47287314    -0.89600
H2122       H  0.76618927  0.69995292  0.50362272     0.18100
H2123       H  0.69930754  0.85522802  0.47669149     0.18100
N2124       N  0.69893068  0.86827592  0.50764264    -0.88600
H2125       H  0.77813668  0.65596290  0.48041675     0.35500
H2126       H  0.78357844  0.70914004  0.46622533     0.40600
H2127       H  0.68188415  0.84456846  0.51442406     0.40200
H2128       H  0.68638637  0.89768226  0.50013716     0.35100
C2129       C  0.96741566  0.54990114  0.86088770    -0.26700
C2130       C  0.98357822  0.58859400  0.85018481    -0.14700
C2131       C  0.99714848  0.64484978  0.85546894     0.35900
C2132       C  0.99376065  0.66111449  0.87118536    -0.26100
C2133       C  0.97813630  0.62184992  0.88183843    -0.15300
C2134       C  0.96446262  0.56598185  0.87665138     0.37000
N2135       N  0.94739693  0.52602936  0.88741974    -0.89600
H2136       H  0.95659110  0.50746555  0.85691236     0.18100
H2137       H  0.00461706  0.70334171  0.87528928     0.18100
N2138       N  0.01484976  0.68493806  0.84498152    -0.88600
H2139       H  0.93890905  0.48680521  0.88177476     0.35500
H2140       H  0.92744161  0.55019419  0.89137348     0.40600
H2141       H  0.03540723  0.66128345  0.84161375     0.40200
H2142       H  0.02244355  0.72478104  0.85065598     0.35100
C2143       C  0.98400803  0.92891289  0.62695807    -0.26700
C2144       C  0.99178668  0.99008729  0.63114972    -0.14700
C2145       C  0.99985894  0.03338370  0.61926384     0.35900
C2146       C  0.99955043  0.01465824  0.60362407    -0.26100
C2147       C  0.99114098  0.95388609  0.59951613    -0.15300
C2148       C  0.98360634  0.91052681  0.61141008     0.37000
N2149       N  0.97433069  0.84826849  0.60810013    -0.89600
H2150       H  0.97776069  0.89464943  0.63583772     0.18100
H2151       H  0.00554083  0.04817480  0.59451694     0.18100
N2152       N  0.00777421  0.58179381  0.62409349    -0.88600
H2153       H  0.99317757  0.82640747  0.60238366     0.35500
H2154       H  0.95467548  0.84951788  0.60073957     0.40600
H2155       H  0.98661342  0.60070427  0.62838681     0.40200
H2156       H  0.01385144  0.60772451  0.61410273     0.35100
C2157       C  0.97759907  0.47437307  0.73359623    -0.26700
C2158       C  0.98444361  0.52829918  0.72464088    -0.14700
C2159       C  0.99009875  0.58424999  0.73236852     0.35900
C2160       C  0.98837824  0.58504785  0.74870784    -0.26100
C2161       C  0.98173800  0.53109825  0.75768055    -0.15300
C2162       C  0.97612376  0.47510508  0.74996963     0.37000
N2163       N  0.96914100  0.41918959  0.75866553    -0.89600
H2164       H  0.97326044  0.43096309  0.72781642     0.18100
H2165       H  0.99282223  0.62848726  0.75445388     0.18100
N2166       N  0.99774466  0.64000601  0.72373040    -0.88600
H2167       H  0.96700321  0.38161474  0.75119393     0.35500
H2168       H  0.94684970  0.42471085  0.76397630     0.40600
H2169       H  0.04555750  0.11067201  0.71688823     0.40200
H2170       H  0.03875708  0.16543717  0.73013586     0.35100
C2171       C  0.71559165  0.67868137  0.85825567    -0.26700
C2172       C  0.73142635  0.63721379  0.84856565    -0.14700
C2173       C  0.74631606  0.58449978  0.85526040     0.35900
C2174       C  0.74396370  0.57323265  0.87130805    -0.26100
C2175       C  0.72719348  0.61340784  0.88105068    -0.15300
C2176       C  0.71322065  0.66754682  0.87435429     0.37000
N2177       N  0.69568362  0.71135477  0.88339286    -0.89600
H2178       H  0.70402477  0.71894662  0.85322470     0.18100
H2179       H  0.75553899  0.53269936  0.87618517     0.18100
N2180       N  0.76470300  0.54225494  0.84612413    -0.88600
H2181       H  0.71098106  0.73236760  0.89126071     0.35500
H2182       H  0.67738717  0.68817859  0.88944648     0.40600
H2183       H  0.78185426  0.56737928  0.83975013     0.40200
H2184       H  0.74981086  0.51932583  0.83842600     0.35100
C2185       C  0.86874824  0.54154678  0.79932576    -0.26700
C2186       C  0.88936774  0.58918405  0.80398251    -0.14700
C2187       C  0.87657625  0.64599408  0.80874492     0.35900
C2188       C  0.84358520  0.65465152  0.80824508    -0.26100
C2189       C  0.82289416  0.60762713  0.80322675    -0.15300
C2190       C  0.83567622  0.55020597  0.79879867     0.37000
N2191       N  0.81531416  0.50134302  0.79355402    -0.89600
H2192       H  0.87855052  0.49757872  0.79575431     0.18100
H2193       H  0.83399280  0.69861720  0.81193711     0.18100
N2194       N  0.89695646  0.69424209  0.81433008    -0.88600
H2195       H  0.82852595  0.46163696  0.79113332     0.35500
H2196       H  0.80544854  0.51593294  0.78298009     0.40600
H2197       H  0.90722239  0.67815930  0.82467684     0.40200
H2198       H  0.88372308  0.73340221  0.81722949     0.35100
C2199       C  0.75901028  0.65619670  0.62087252    -0.26700
C2200       C  0.73594677  0.68097300  0.63080089    -0.14700
C2201       C  0.71507874  0.72704670  0.62504208     0.35900
C2202       C  0.71768259  0.74731636  0.60947507    -0.26100
C2203       C  0.74089147  0.72273633  0.59950452    -0.15300
C2204       C  0.76200354  0.67706993  0.60532705     0.37000
N2205       N  0.78679716  0.65284502  0.59548764    -0.89600
H2206       H  0.77555857  0.62229658  0.62544707     0.18100
H2207       H  0.70102067  0.78132043  0.60506084     0.18100
N2208       N  0.69056179  0.75290904  0.63467034    -0.88600
H2209       H  0.80014956  0.61968011  0.60151558     0.35500
H2210       H  0.80230611  0.68935049  0.59267289     0.40600
H2211       H  0.70105230  0.77545282  0.64401217     0.40200
H2212       H  0.67640485  0.71671794  0.63910590     0.35100
C2213       C  0.88884784  0.61665423  0.67758513    -0.26700
C2214       C  0.89598959  0.55365040  0.67542572    -0.14700
C2215       C  0.87092508  0.51171228  0.67290514     0.35900
C2216       C  0.83945109  0.53367980  0.67269682    -0.26100
C2217       C  0.83227149  0.59673080  0.67498016    -0.15300
C2218       C  0.85744983  0.63854539  0.67757838     0.37000
N2219       N  0.85126466  0.70285506  0.68042332    -0.89600
H2220       H  0.90791466  0.64922406  0.67967725     0.18100
H2221       H  0.82038302  0.50100358  0.67072556     0.18100
N2222       N  0.87738011  0.44725458  0.67045551    -0.88600
H2223       H  0.87252217  0.72764741  0.68140857     0.35500
H2224       H  0.83980347  0.70552133  0.69128223     0.40600
H2225       H  0.88998898  0.44385464  0.65992158     0.40200
H2226       H  0.85622427  0.42246703  0.66908623     0.35100
C2227       C  0.71088838  0.61843125  0.73055651    -0.26700
C2228       C  0.74062558  0.62475602  0.72321772    -0.14700
C2229       C  0.76740767  0.64177768  0.73209086     0.35900
C2230       C  0.76341133  0.65435460  0.74798381    -0.26100
C2231       C  0.73347697  0.64963272  0.75523759    -0.15300
C2232       C  0.70682285  0.63127221  0.74641747     0.37000
N2233       N  0.67522801  0.62683926  0.75299742    -0.89600
H2234       H  0.69021321  0.60717046  0.72369349     0.18100
H2235       H  0.78403862  0.66616447  0.75482673     0.18100
N2236       N  0.79886426  0.64669297  0.72538046    -0.88600
H2237       H  0.66088504  0.65802170  0.74685742     0.35500
H2238       H  0.67444871  0.64113644  0.76456614     0.40600
H2239       H  0.79924464  0.63334431  0.71372317     0.40200
H2240       H  0.81329825  0.61493779  0.73127672     0.35100
C2241       C  0.49207293  0.65861170  0.62578311    -0.26700
C2242       C  0.49195412  0.72126796  0.63027625    -0.14700
C2243       C  0.49274379  0.76764589  0.61850580     0.35900
C2244       C  0.49274520  0.75066284  0.60284857    -0.26100
C2245       C  0.49193268  0.68811812  0.59833657    -0.15300
C2246       C  0.49212612  0.64163748  0.61007151     0.37000
N2247       N  0.49156778  0.57708856  0.60651237    -0.89600
H2248       H  0.49183695  0.62203311  0.63457354     0.18100
H2249       H  0.49306304  0.78738530  0.59409320     0.18100
N2250       N  0.49270684  0.83231854  0.62195212    -0.88600
H2251       H  0.51188946  0.56667991  0.59996373     0.35500
H2252       H  0.47137986  0.56797395  0.59988987     0.40600
H2253       H  0.51313859  0.84269441  0.62824586     0.40200
H2254       H  0.47253114  0.84215892  0.62869177     0.35100
C2255       C  0.59138434  0.65374455  0.68449145    -0.26700
C2256       C  0.58063630  0.70957242  0.67791815    -0.14700
C2257       C  0.60325287  0.75295659  0.67187729     0.35900
C2258       C  0.63581746  0.74044972  0.67310692    -0.26100
C2259       C  0.64647821  0.68471564  0.67959147    -0.15300
C2260       C  0.62409624  0.64077271  0.68537957     0.37000
N2261       N  0.63466888  0.58346455  0.69227729    -0.89600
H2262       H  0.57426810  0.62052360  0.68913836     0.18100
H2263       H  0.65299832  0.77333991  0.66834778     0.18100
N2264       N  0.59319484  0.80898854  0.66412971    -0.88600
H2265       H  0.61526497  0.55617807  0.69585178     0.35500
H2266       H  0.64718331  0.59420764  0.70236071     0.40600
H2267       H  0.58164630  0.79630239  0.65390989     0.40200
H2268       H  0.61275796  0.83601399  0.66064273     0.35100
C2269       C  0.47105140  0.89312087  0.85285895    -0.26700
C2270       C  0.48037536  0.83253561  0.84907647    -0.14700
C2271       C  0.48994504  0.79204218  0.86117403     0.35900
C2272       C  0.49020693  0.81293485  0.87656497    -0.26100
C2273       C  0.48111245  0.87382589  0.88038287    -0.15300
C2274       C  0.47143234  0.91434718  0.86828207     0.37000
N2275       N  0.46199635  0.97675229  0.87157775    -0.89600
H2276       H  0.46363751  0.92460012  0.84364308     0.18100
H2277       H  0.49774368  0.78086173  0.88562099     0.18100
N2278       N  0.50045237  0.73027870  0.85819923    -0.88600
H2279       H  0.45418852  0.99934282  0.86145631     0.35500
H2280       H  0.48226883  0.00065340  0.87511875     0.40600
H2281       H  0.51945178  0.73234625  0.85023311     0.40200
H2282       H  0.48174665  0.70562208  0.85327885     0.35100
C2283       C  0.59829206  0.78431532  0.79550789    -0.26700
C2284       C  0.57564882  0.75075249  0.80430140    -0.14700
C2285       C  0.58505814  0.69578740  0.81214343     0.35900
C2286       C  0.61631680  0.67438615  0.81064721    -0.26100
C2287       C  0.63885943  0.70735632  0.80173573    -0.15300
C2288       C  0.62981234  0.76307454  0.79407350     0.37000
N2289       N  0.65246716  0.79720973  0.78462396    -0.89600
H2290       H  0.59115263  0.82605785  0.78933752     0.18100
H2291       H  0.62317850  0.63251223  0.81685023     0.18100
N2292       N  0.56305745  0.66195849  0.82192744    -0.88600
H2293       H  0.64207619  0.83704706  0.77987150     0.35500
H2294       H  0.65886871  0.76936943  0.77522524     0.40600
H2295       H  0.57231922  0.65968655  0.83319317     0.40200
H2296       H  0.56141613  0.61684074  0.81775316     0.35100
C2297       C  0.48464161  0.82914216  0.74733476    -0.26700
C2298       C  0.48310062  0.77413062  0.75641504    -0.14700
C2299       C  0.48182393  0.71689627  0.74877157     0.35900
C2300       C  0.48233665  0.71611330  0.73236294    -0.26100
C2301       C  0.48433842  0.77113004  0.72330838    -0.15300
C2302       C  0.48508457  0.82837742  0.73095378     0.37000
N2303       N  0.48602054  0.88557375  0.72215810    -0.89600
H2304       H  0.48523683  0.87354344  0.75303138     0.18100
H2305       H  0.48166796  0.67180154  0.72662441     0.18100
N2306       N  0.48032723  0.65979655  0.75758192    -0.88600
H2307       H  0.48734262  0.92341172  0.72959287     0.35500
H2308       H  0.46442629  0.88964196  0.71630362     0.40600
H2309       H  0.50193706  0.65477833  0.76337306     0.40200
H2310       H  0.47848137  0.62204167  0.75014661     0.35100
C2311       C  0.24051154  0.90787315  0.61885177    -0.26700
C2312       C  0.23800145  0.95543895  0.62963935    -0.14700
C2313       C  0.23373914  0.01698905  0.62419242     0.35900
C2314       C  0.23366453  0.03000547  0.60814630    -0.26100
C2315       C  0.23752145  0.98282390  0.59726189    -0.15300
C2316       C  0.24039716  0.92051995  0.60283004     0.37000
N2317       N  0.24323984  0.86866880  0.59268042    -0.89600
H2318       H  0.24338026  0.86043166  0.62287531     0.18100
H2319       H  0.23078104  0.07757486  0.60423840     0.18100
N2320       N  0.22902000  0.06656843  0.63489269    -0.88600
H2321       H  0.26421563  0.87295132  0.58609828     0.35500
H2322       H  0.22352781  0.86746160  0.58536655     0.40600
H2323       H  0.20713718  0.08724024  0.63247748     0.40200
H2324       H  0.24688003  0.09959248  0.63286308     0.35100
C2325       C  0.09634948  0.93342648  0.68405149    -0.26700
C2326       C  0.08517947  0.99123023  0.67902269    -0.14700
C2327       C  0.10471259  0.52625889  0.68206292     0.35900
C2328       C  0.14025317  0.02598380  0.67555030    -0.26100
C2329       C  0.15125618  0.96741405  0.67995020    -0.15300
C2330       C  0.12906202  0.92118768  0.68476057     0.37000
N2331       N  0.13981044  0.86191910  0.69041805    -0.89600
H2332       H  0.07951816  0.89759437  0.68751762     0.18100
H2333       H  0.15384031  0.55354342  0.68134452     0.18100
N2334       N  0.09402642  0.58883231  0.68356623    -0.88600
H2335       H  0.12054208  0.83309398  0.69330835     0.35500
H2336       H  0.15205270  0.86942820  0.70077099     0.40600
H2337       H  0.10287859  0.61462412  0.67404498     0.40200
H2338       H  0.10376550  0.60687586  0.69371663     0.35100
C2339       C  0.33893808  0.79809950  0.67692213    -0.26700
C2340       C  0.33416484  0.86141161  0.67345430    -0.14700
C2341       C  0.36073522  0.89899532  0.66988678     0.35900
C2342       C  0.39132439  0.87294353  0.67029896    -0.26100
C2343       C  0.39622720  0.80984165  0.67410419    -0.15300
C2344       C  0.36952751  0.77202163  0.67740051     0.37000
N2345       N  0.37336054  0.70762917  0.68139504    -0.89600
H2346       H  0.31864827  0.76874420  0.67966883     0.18100
H2347       H  0.41152756  0.90254973  0.66758481     0.18100
N2348       N  0.35668548  0.96318154  0.66572261    -0.88600
H2349       H  0.35123974  0.68593392  0.68282897     0.35500
H2350       H  0.38434482  0.70525187  0.69227145     0.40600
H2351       H  0.34453028  0.96501800  0.65514853     0.40200
H2352       H  0.37870909  0.98455405  0.66367117     0.35100
C2353       C  0.22561692  0.80424550  0.85332738    -0.26700
C2354       C  0.23357736  0.86494106  0.84828510    -0.14700
C2355       C  0.24274440  0.90871542  0.85942621     0.35900
C2356       C  0.24236272  0.89152819  0.87527965    -0.26100
C2357       C  0.23354298  0.83143223  0.88026056    -0.15300
C2358       C  0.22539064  0.78714074  0.86916605     0.37000
N2359       N  0.21578341  0.72583108  0.87400481    -0.89600
H2360       H  0.21884327  0.76986998  0.84490476     0.18100
H2361       H  0.24894372  0.92549915  0.88385741     0.18100
N2362       N  0.25206457  0.97037855  0.85473826    -0.88600
H2363       H  0.21092733  0.69859280  0.86432776     0.35500
H2364       H  0.19437344  0.72990904  0.88019662     0.40600
H2365       H  0.27359552  0.96701421  0.84859217     0.40200
H2366       H  0.25670633  0.99736001  0.86448455     0.35100
C2367       C  0.33377953  0.79508266  0.80649292    -0.26700
C2368       C  0.32259244  0.84859279  0.79905815    -0.14700
C2369       C  0.34453230  0.89087256  0.79213889     0.35900
C2370       C  0.37728920  0.88017850  0.79347567    -0.26100
C2371       C  0.38864149  0.82762123  0.80133868    -0.15300
C2372       C  0.36652613  0.78435039  0.80778856     0.37000
N2373       N  0.37709407  0.73037373  0.81612473    -0.89600
H2374       H  0.31711228  0.76283104  0.81194341     0.18100
H2375       H  0.39400406  0.91276504  0.78820950     0.18100
N2376       N  0.33339478  0.94457461  0.78374669    -0.88600
H2377       H  0.36774634  0.69141983  0.81068850     0.35500
H2378       H  0.36773553  0.73173896  0.82746863     0.40600
H2379       H  0.32106077  0.92896456  0.77402316     0.40200
H2380       H  0.35248665  0.97110404  0.77946148     0.35100
C2381       C  0.13613737  0.02422643  0.80074879    -0.26700
C2382       C  0.14045609  0.96052431  0.80390069    -0.14700
C2383       C  0.11373164  0.92400285  0.80795893     0.35900
C2384       C  0.08360799  0.95192104  0.80880104    -0.26100
C2385       C  0.07914887  0.01549634  0.80541822    -0.15300
C2386       C  0.10060707  0.54332851  0.80050206     0.37000
N2387       N  0.09491996  0.60856393  0.79852941    -0.89600
H2388       H  0.15651924  0.05276747  0.79761914     0.18100
H2389       H  0.06331625  0.92309899  0.81188922     0.18100
N2390       N  0.11713986  0.85910001  0.81148788    -0.88600
H2391       H  0.11601913  0.63211684  0.79571386     0.35500
H2392       H  0.08733732  0.62538744  0.80932095     0.40600
H2393       H  0.12293593  0.83703078  0.80106854     0.40200
H2394       H  0.09546502  0.83998672  0.81526393     0.35100
C2395       C  0.22255344  0.86117661  0.74695074    -0.26700
C2396       C  0.23396676  0.91246332  0.75523930    -0.14700
C2397       C  0.24941447  0.96085612  0.74687017     0.35900
C2398       C  0.25311245  0.95668621  0.73072530    -0.26100
C2399       C  0.24166878  0.90543040  0.72243220    -0.15300
C2400       C  0.22621082  0.85705192  0.73080140     0.37000
N2401       N  0.21366312  0.80343856  0.72336675    -0.89600
H2402       H  0.21065731  0.82324622  0.75305342     0.18100
H2403       H  0.26497544  0.99465796  0.72462327     0.18100
N2404       N  0.26183759  0.01460939  0.75429408    -0.88600
H2405       H  0.23219420  0.78090511  0.71756292     0.35500
H2406       H  0.19652922  0.81742735  0.71533011     0.40600
H2407       H  0.27893286  0.00078717  0.76237897     0.40200
H2408       H  0.24324440  0.03713898  0.76003921     0.35100
C2409       C  0.22292467  0.66705311  0.37547114    -0.26700
C2410       C  0.23212039  0.60589519  0.37945155    -0.14700
C2411       C  0.24310909  0.56694972  0.36745282     0.35900
C2412       C  0.24336175  0.58867003  0.35205007    -0.26100
C2413       C  0.23303386  0.64867692  0.34806919    -0.15300
C2414       C  0.22320917  0.68876297  0.35991074     0.37000
N2415       N  0.21271722  0.75037598  0.35611078    -0.89600
H2416       H  0.21487292  0.69806211  0.38449708     0.18100
H2417       H  0.25145048  0.55770000  0.34299995     0.18100
N2418       N  0.25411233  0.50523304  0.37038148    -0.88600
H2419       H  0.20650569  0.77410067  0.36623387     0.35500
H2420       H  0.19196721  0.74653376  0.34957475     0.40600
H2421       H  0.23557934  0.47913130  0.37538394     0.40200
H2422       H  0.27320359  0.50696551  0.37807252     0.35100
C2423       C  0.24357579  0.80585304  0.12469396    -0.26700
C2424       C  0.23279086  0.74636075  0.12949606    -0.14700
C2425       C  0.21972969  0.70706267  0.11819283     0.35900
C2426       C  0.21841491  0.72729534  0.10265147    -0.26100
C2427       C  0.22981816  0.78609470  0.09788463    -0.15300
C2428       C  0.24222004  0.82593672  0.10913570     0.37000
N2429       N  0.25474967  0.88583376  0.10507290    -0.89600
H2430       H  0.25354568  0.83737028  0.13306662     0.18100
H2431       H  0.20875500  0.69604539  0.09411420     0.18100
N2432       N  0.20772143  0.64652259  0.12198716    -0.88600
H2433       H  0.23655891  0.91232678  0.10017274     0.35500
H2434       H  0.27286662  0.88051854  0.09674980     0.40600
H2435       H  0.18931899  0.65057953  0.13019880     0.40200
H2436       H  0.22610127  0.62006755  0.12674217     0.35100
C2437       C  0.22449988  0.74782814  0.24731096    -0.26700
C2438       C  0.23404015  0.69426340  0.25524323    -0.14700
C2439       C  0.24270302  0.64105321  0.24667983     0.35900
C2440       C  0.24085756  0.64233363  0.23034177    -0.26100
C2441       C  0.23126780  0.69590476  0.22241629    -0.15300
C2442       C  0.22266251  0.74912388  0.23098642     0.37000
N2443       N  0.21158769  0.80405315  0.22308270    -0.89600
H2444       H  0.21746163  0.78809022  0.25389014     0.18100
H2445       H  0.24792944  0.60212359  0.22375144     0.18100
N2446       N  0.25386158  0.58622000  0.25459425    -0.88600
H2447       H  0.20648056  0.83893137  0.23105365     0.35500
H2448       H  0.19014956  0.79297017  0.21770814     0.40600
H2449       H  0.27528236  0.59745428  0.25996760     0.40200
H2450       H  0.25903550  0.55137419  0.24662540     0.35100
C2451       C  0.49517644  0.65879496  0.35278193    -0.26700
C2452       C  0.48021597  0.60380035  0.34800673    -0.14700
C2453       C  0.46343495  0.56742056  0.35909815     0.35900
C2454       C  0.46258356  0.58622618  0.37467994    -0.26100
C2455       C  0.47801417  0.64054233  0.37948623    -0.15300
C2456       C  0.49472052  0.67733559  0.36834458     0.37000
N2457       N  0.51247002  0.73195092  0.37224659    -0.89600
H2458       H  0.50818784  0.68737971  0.34438421     0.18100
H2459       H  0.44998356  0.55773763  0.38325623     0.18100
N2460       N  0.44727247  0.51184950  0.35459182    -0.88600
H2461       H  0.53633088  0.72390505  0.36940441     0.35500
H2462       H  0.51190901  0.74071817  0.38414805     0.40600
H2463       H  0.42854671  0.52490334  0.34733742     0.40200
H2464       H  0.43693031  0.48961304  0.36431588     0.35100
C2465       C  0.37970956  0.67443370  0.30475221    -0.26700
C2466       C  0.39027292  0.61677015  0.29966806    -0.14700
C2467       C  0.36770032  0.57224130  0.29487760     0.35900
C2468       C  0.33509949  0.58569816  0.29581732    -0.26100
C2469       C  0.32436992  0.64288517  0.30122496    -0.15300
C2470       C  0.34706726  0.68789143  0.30577588     0.37000
N2471       N  0.33705565  0.74666068  0.31174763    -0.89600
H2472       H  0.39694931  0.70827849  0.30853551     0.18100
H2473       H  0.31798877  0.55149807  0.29210046     0.18100
N2474       N  0.37794428  0.51355685  0.28893764    -0.88600
H2475       H  0.35666456  0.77473527  0.31411896     0.35500
H2476       H  0.32551778  0.73817892  0.32244079     0.40600
H2477       H  0.39050109  0.52225520  0.27853085     0.40200
H2478       H  0.35843652  0.48597933  0.28609071     0.35100
C2479       C  0.49025494  0.07566873  0.11792663    -0.26700
C2480       C  0.48421338  0.02844443  0.12895551    -0.14700
C2481       C  0.48056156  0.96672639  0.12370423     0.35900
C2482       C  0.48187098  0.95412621  0.10776827    -0.26100
C2483       C  0.48660961  0.00147185  0.09676134    -0.15300
C2484       C  0.49166958  0.06286334  0.10187432     0.37000
N2485       N  0.49836555  0.11191671  0.09077950    -0.89600
H2486       H  0.49365957  0.12270735  0.12180372     0.18100
H2487       H  0.47820122  0.90700366  0.10398411     0.18100
N2488       N  0.47535033  0.91614529  0.13444969    -0.88600
H2489       H  0.52019653  0.10210346  0.08541643     0.35500
H2490       H  0.50121906  0.15410141  0.09642954     0.40600
H2491       H  0.49358164  0.88396048  0.13287573     0.40200
H2492       H  0.45381332  0.89481739  0.13169836     0.35100
C2493       C  0.36301582  0.56860053  0.16774095    -0.26700
C2494       C  0.38647875  0.59770417  0.17644243    -0.14700
C2495       C  0.37901784  0.65248576  0.18454229     0.35900
C2496       C  0.34841784  0.67809631  0.18338757    -0.26100
C2497       C  0.32493524  0.64958058  0.17451355    -0.15300
C2498       C  0.33240538  0.59418323  0.16653186     0.37000
N2499       N  0.30907934  0.56459693  0.15698604    -0.89600
H2500       H  0.36894656  0.52709538  0.16139722     0.18100
H2501       H  0.34264334  0.71955659  0.18977660     0.18100
N2502       N  0.40251328  0.68136019  0.19411836    -0.88600
H2503       H  0.31826231  0.52430016  0.15208146     0.35500
H2504       H  0.30406521  0.59479510  0.14769067     0.40600
H2505       H  0.40776746  0.65038219  0.20321369     0.40200
H2506       H  0.39331693  0.72109881  0.19929843     0.35100
C2507       C  0.48298609  0.60950843  0.24700301    -0.26700
C2508       C  0.48136116  0.55320885  0.25554708    -0.14700
C2509       C  0.47832638  0.49726982  0.24751617     0.35900
C2510       C  0.47687224  0.49899387  0.23119030    -0.26100
C2511       C  0.47869207  0.55529210  0.22264798    -0.15300
C2512       C  0.48156391  0.61124995  0.23069071     0.37000
N2513       N  0.48282585  0.66955585  0.22238551    -0.89600
H2514       H  0.48498488  0.65294054  0.25307557     0.18100
H2515       H  0.47480297  0.45559744  0.22510805     0.18100
N2516       N  0.47706681  0.43902725  0.25584440    -0.88600
H2517       H  0.48593084  0.70610584  0.23009404     0.35500
H2518       H  0.46069925  0.67635452  0.21720873     0.40600
H2519       H  0.49919872  0.43229893  0.26103403     0.40200
H2520       H  0.47397608  0.40245154  0.24814564     0.35100
C2521       C  0.98258838  0.79398041  0.35892957    -0.26700
C2522       C  0.97857251  0.84357972  0.34846225    -0.14700
C2523       C  0.97341027  0.90386803  0.35449923     0.35900
C2524       C  0.97392276  0.91318319  0.37053580    -0.26100
C2525       C  0.97935082  0.86424785  0.38098401    -0.15300
C2526       C  0.98277878  0.80335692  0.37512857     0.37000
N2527       N  0.98632880  0.75111944  0.38555900    -0.89600
H2528       H  0.98594466  0.74776847  0.35446309     0.18100
H2529       H  0.97051845  0.95968457  0.37481648     0.18100
N2530       N  0.96707440  0.95690062  0.34478521    -0.88600
H2531       H  0.98951017  0.71030871  0.37932784     0.35500
H2532       H  0.96494747  0.74583893  0.39178879     0.40600
H2533       H  0.94776931  0.94718713  0.33762743     0.40200
H2534       H  0.98721836  0.96762673  0.33802664     0.35100
C2535       C  0.08100397  0.71178027  0.30336119    -0.26700
C2536       C  0.07416197  0.77550735  0.30172739    -0.14700
C2537       C  0.09971943  0.81761205  0.30008661     0.35900
C2538       C  0.13115095  0.79517993  0.30041454    -0.26100
C2539       C  0.13789056  0.73143202  0.30212319    -0.15300
C2540       C  0.11233330  0.68938517  0.30363694     0.37000
N2541       N  0.11808270  0.62418298  0.30562621    -0.89600
H2542       H  0.06172455  0.67867434  0.30461318     0.18100
H2543       H  0.15056666  0.82798493  0.29913111     0.18100
N2544       N  0.09389772  0.88276946  0.29809385    -0.88600
H2545       H  0.09667501  0.59944334  0.30608694     0.35500
H2546       H  0.12875618  0.61764853  0.31648479     0.40600
H2547       H  0.08329005  0.88924306  0.28721735     0.40200
H2548       H  0.11530875  0.90749572  0.29763513     0.35100
C2549       C  0.97222969  0.82660166  0.11888279    -0.26700
C2550       C  0.99032855  0.79191006  0.12937511    -0.14700
C2551       C  0.00686346  0.73886899  0.12405250     0.35900
C2552       C  0.00329208  0.72005479  0.10859429    -0.26100
C2553       C  0.98444017  0.75363626  0.09812671    -0.15300
C2554       C  0.96880521  0.80794982  0.10335504     0.37000
N2555       N  0.94869090  0.84310879  0.09307267    -0.89600
H2556       H  0.95921166  0.86641534  0.12305715     0.18100
H2557       H  0.01592433  0.67937816  0.10468097     0.18100
N2558       N  0.02752314  0.70306592  0.13395011    -0.88600
H2559       H  0.93963608  0.88210535  0.09865352     0.35500
H2560       H  0.92913898  0.81525742  0.09045327     0.40600
H2561       H  0.03066908  0.72397062  0.14471176     0.40200
H2562       H  0.05008796  0.70316542  0.12869868     0.35100
C2563       C  0.08702449  0.72654935  0.17118053    -0.26700
C2564       C  0.07570720  0.78020352  0.17821136    -0.14700
C2565       C  0.09786258  0.82228475  0.18467883     0.35900
C2566       C  0.13052884  0.81002193  0.18374915    -0.26100
C2567       C  0.14179886  0.75663307  0.17650511    -0.15300
C2568       C  0.11964044  0.71468483  0.17010741     0.37000
N2569       N  0.13009776  0.66033619  0.16217029    -0.89600
H2570       H  0.07051381  0.69428415  0.16604161     0.18100
H2571       H  0.14712951  0.84190373  0.18896523     0.18100
N2572       N  0.08799583  0.87665503  0.19275425    -0.88600
H2573       H  0.12155042  0.66230446  0.15076265     0.35500
H2574       H  0.11992553  0.62171371  0.16780236     0.40600
H2575       H  0.07179081  0.86355514  0.20153849     0.40200
H2576       H  0.07700859  0.90697406  0.18491448     0.35100
C2577       C  0.96295945  0.77724453  0.23018281    -0.26700
C2578       C  0.97800483  0.82717835  0.22223969    -0.14700
C2579       C  0.99331986  0.87310049  0.23091231     0.35900
C2580       C  0.99377295  0.86731682  0.24722534    -0.26100
C2581       C  0.97931065  0.81670130  0.25514747    -0.15300
C2582       C  0.96322334  0.77174540  0.24651637     0.37000
N2583       N  0.94685898  0.72132762  0.25428506    -0.89600
H2584       H  0.95076390  0.74210427  0.22360662     0.18100
H2585       H  0.00597564  0.90248865  0.25378875     0.18100
N2586       N  0.00882831  0.92473283  0.22322624    -0.88600
H2587       H  0.93670985  0.69173899  0.24616421     0.35500
H2588       H  0.92798441  0.74010867  0.26067549     0.40600
H2589       H  0.02832753  0.90749910  0.21702469     0.40200
H2590       H  0.01802713  0.95529591  0.23138947     0.35100
C2591       C  0.74700915  0.89849405  0.35911183    -0.26700
C2592       C  0.72857700  0.86282174  0.34908530    -0.14700
C2593       C  0.71417677  0.80772010  0.35499112     0.35900
C2594       C  0.71797404  0.79033767  0.37068337    -0.26100
C2595       C  0.73580401  0.82673275  0.38073542    -0.15300
C2596       C  0.75143550  0.88058924  0.37473621     0.37000
N2597       N  0.77234813  0.91764714  0.38399882    -0.89600
H2598       H  0.75893916  0.93978660  0.35468257     0.18100
H2599       H  0.70576015  0.74944267  0.37518024     0.18100
N2600       N  0.69494599  0.76982097  0.34524413    -0.88600
H2601       H  0.79448372  0.91904606  0.37831994     0.35500
H2602       H  0.77673651  0.89681021  0.39481008     0.40600
H2603       H  0.67218355  0.76674193  0.35023287     0.40200
H2604       H  0.70470294  0.72536280  0.34516381     0.35100
C2605       C  0.83249077  0.81362642  0.30788251    -0.26700
C2606       C  0.81982349  0.86586732  0.30047937    -0.14700
C2607       C  0.84060001  0.91047181  0.29357757     0.35900
C2608       C  0.87364662  0.90277332  0.29466822    -0.26100
C2609       C  0.88641199  0.85090332  0.30223931    -0.15300
C2610       C  0.86550293  0.80592193  0.30892918     0.37000
N2611       N  0.87762157  0.75311089  0.31721732    -0.89600
H2612       H  0.81676182  0.77984560  0.31341940     0.18100
H2613       H  0.88947265  0.93671373  0.28927979     0.18100
N2614       N  0.82798260  0.96317879  0.28531774    -0.88600
H2615       H  0.86900740  0.71326180  0.31190094     0.35500
H2616       H  0.86862928  0.75386193  0.32863723     0.40600
H2617       H  0.81606586  0.94650526  0.27559079     0.40200
H2618       H  0.84631645  0.99172708  0.28104430     0.35100
C2619       C  0.63083463  0.52136229  0.30263620    -0.26700
C2620       C  0.63548075  0.45707390  0.30455127    -0.14700
C2621       C  0.60842334  0.92343346  0.30240407     0.35900
C2622       C  0.57807845  0.44452803  0.30598994    -0.26100
C2623       C  0.57344049  0.50891900  0.30399647    -0.15300
C2624       C  0.60034478  0.54770216  0.30242255     0.37000
N2625       N  0.59684745  0.61358136  0.30057887    -0.89600
H2626       H  0.65124469  0.55175244  0.30127610     0.18100
H2627       H  0.55767412  0.41409324  0.30726772     0.18100
N2628       N  0.61183890  0.85736967  0.30157671    -0.88600
H2629       H  0.61898171  0.63496606  0.29888109     0.35500
H2630       H  0.58772928  0.63038773  0.31108847     0.40600
H2631       H  0.62221669  0.84758941  0.29075362     0.40200
H2632       H  0.58957507  0.83567663  0.30170426     0.35100
C2633       C  0.72022631  0.53046042  0.12656774    -0.26700
C2634       C  0.73075461  0.47155253  0.13137846    -0.14700
C2635       C  0.74261742  0.43023036  0.12027334     0.35900
C2636       C  0.74410647  0.44920176  0.10456044    -0.26100
C2637       C  0.73414573  0.50881694  0.09969816    -0.15300
C2638       C  0.72170679  0.54948492  0.11096271     0.37000
N2639       N  0.71016864  0.60998093  0.10704038    -0.89600
H2640       H  0.71084372  0.56243903  0.13508187     0.18100
H2641       H  0.75354185  0.41714195  0.09610065     0.18100
N2642       N  0.74349154  0.88580699  0.12399505    -0.88600
H2643       H  0.69185721  0.60574442  0.09897673     0.35500
H2644       H  0.72879070  0.63601299  0.10209257     0.40600
H2645       H  0.76527408  0.88508574  0.12976434     0.40200
H2646       H  0.74630005  0.85817986  0.11416604     0.35100
C2647       C  0.62435646  0.52749946  0.18528881    -0.26700
C2648       C  0.63667317  0.47573938  0.17762951    -0.14700
C2649       C  0.61716652  0.95156301  0.17087788     0.35900
C2650       C  0.58452451  0.96336880  0.17133523    -0.26100
C2651       C  0.57033766  0.49814822  0.17823342    -0.15300
C2652       C  0.59143424  0.53897552  0.18575323     0.37000
N2653       N  0.57929599  0.59166610  0.19395126    -0.89600
H2654       H  0.64041127  0.55866743  0.19112569     0.18100
H2655       H  0.56837921  0.93081348  0.16603545     0.18100
N2656       N  0.62726498  0.89644637  0.16318251    -0.88600
H2657       H  0.59785234  0.61705568  0.19879105     0.35500
H2658       H  0.56534767  0.57502684  0.20329147     0.40600
H2659       H  0.63784709  0.86661626  0.17128728     0.40200
H2660       H  0.64353633  0.90840637  0.15432325     0.35100
C2661       C  0.83269973  0.84915109  0.17359419    -0.26700
C2662       C  0.82620481  0.91296489  0.17494868    -0.14700
C2663       C  0.85219942  0.95451388  0.17543195     0.35900
C2664       C  0.88331847  0.93158568  0.17482396    -0.26100
C2665       C  0.88975866  0.86764557  0.17377464    -0.15300
C2666       C  0.86376864  0.82622920  0.17304441     0.37000
N2667       N  0.86787029  0.76075187  0.17163835    -0.89600
H2668       H  0.81338610  0.81597466  0.17305404     0.18100
H2669       H  0.90269991  0.96461679  0.17536904     0.18100
N2670       N  0.84804263  0.02007982  0.17652080    -0.88600
H2671       H  0.87969588  0.74392328  0.18148167     0.35500
H2672       H  0.88151037  0.75221700  0.16163705     0.40600
H2673       H  0.83364615  0.52181329  0.17836830     0.40200
H2674       H  0.83489464  0.03555834  0.16695340     0.35100
C2675       C  0.74166647  0.47476033  0.23270647    -0.26700
C2676       C  0.73141839  0.93832274  0.22363567    -0.14700
C2677       C  0.71659078  0.88780121  0.23127291     0.35900
C2678       C  0.71526300  0.88559279  0.24758394    -0.26100
C2679       C  0.72843298  0.93302205  0.25662758    -0.15300
C2680       C  0.74082356  0.47489791  0.24907182     0.37000
N2681       N  0.75504559  0.52500874  0.25740035    -0.89600
H2682       H  0.75309889  0.51310323  0.22656305     0.18100
H2683       H  0.70365396  0.84616425  0.25318406     0.18100
N2684       N  0.70227365  0.83913109  0.22258046    -0.88600
H2685       H  0.76380125  0.55892814  0.24964126     0.35500
H2686       H  0.77473926  0.50730846  0.26328396     0.40600
H2687       H  0.67819228  0.83660637  0.22569978     0.40200
H2688       H  0.71295769  0.79737710  0.22587675     0.35100
loop_ 
_geom_bond_atom_site_label_1 
_geom_bond_atom_site_label_2 
_geom_bond_distance 
_geom_bond_site_symmetry_2 
_ccdc_geom_bond_type 
O1            V9   1.924   1_565  S
O1         C1355   1.272       .  A
O2            V9   1.922       .  S
O2           C12   1.272   1_545  A
O3            V9   1.876   1_565  S
O3         C1357   1.258       .  A
O4            V9   1.874       .  S
O4           C14   1.257   1_545  A
O5           V10   1.914       .  S
O5         C1358   1.269       .  A
O6           V10   1.912       .  S
O6           C13   1.270       .  A
O7         V1354   1.874       .  S
O7           C12   1.255       .  A
O8           V10   1.885       .  S
O8           C11   1.259       .  A
V9         V1354   2.083   1_545  T
V10        O1351   1.879       .  S
V10        V1353   2.084       .  T
C11        O1345   1.272       .  A
C11        C1318   1.493       .  S
C12        C1304   1.487       .  S
C13        O1347   1.256       .  A
C13        C1332   1.476       .  S
C14        O1349   1.269       .  A
C14        C1290   1.475       .  S
O15          V23   1.922       .  S
O15          C25   1.271       .  A
O16          V23   1.923       .  S
O16          C26   1.272       .  A
O17          V23   1.870       .  S
O17          C27   1.256       .  A
O18          V23   1.867       .  S
O18          C28   1.256       .  A
O19        V1368   1.917       .  S
O19        C1372   1.270       .  A
O20          V24   1.917       .  S
O20          C27   1.270       .  A
O21          V24   1.873       .  S
O21          C26   1.256       .  A
O22        V1368   1.874       .  S
O22        C1369   1.258       .  A
V23          V24   2.084       .  T
V24        O1363   1.913       .  S
V24        O1366   1.876       .  S
C25        O1366   1.259       .  A
C25        C2620   1.489       .  S
C26        C1262   1.478       .  S
C27        C1248   1.472       .  S
C28        O1363   1.270       .  A
C28        C1335   1.476       .  S
O29          V37   1.927       .  S
O29          C39   1.273       .  A
O30          V37   1.921   1_455  S
O30          C40   1.272       .  A
O31          V37   1.870       .  S
O31          C41   1.257       .  A
O32          V37   1.874       .  S
O32          C42   1.256       .  A
O33          V38   1.919       .  S
O33          C42   1.271       .  A
O34          V38   1.920       .  S
O34          C41   1.271       .  A
O35          V38   1.875   1_455  S
O35          C40   1.255       .  A
O36          V38   1.878       .  S
O36          C39   1.259       .  A
V37          V38   2.084       .  T
C39        C1321   1.496       .  S
C40        C1220   1.482       .  S
C41        C1234   1.482       .  S
C42        C1206   1.475       .  S
O43          V51   1.922   1_455  S
O43          C53   1.272       .  A
O44          V51   1.920       .  S
O44          C54   1.272       .  A
O45          V51   1.871       .  S
O45          C55   1.255       .  A
O46          V51   1.873       .  S
O46          C56   1.257       .  A
O47          V52   1.917       .  S
O47          C56   1.271       .  A
O48          V52   1.919       .  S
O48          C55   1.271       .  A
O49          V52   1.875       .  S
O49          C54   1.256       .  A
O50          V52   1.878   1_455  S
O50          C53   1.259       .  A
V51          V52   2.084       .  T
C53        C1192   1.492       .  S
C54        C1265   1.481       .  S
C55        C1178   1.478       .  S
C56        C1237   1.482       .  S
O57          V65   1.926       .  S
O57          C67   1.273       .  A
O58          V65   1.919       .  S
O58          C68   1.272       .  A
O59          V65   1.874       .  S
O59          C69   1.256       .  A
O60          V65   1.876       .  S
O60          C70   1.257       .  A
O61        V1410   1.922       .  S
O61          C70   1.271       .  A
O62          V66   1.921       .  S
O62        C1413   1.271       .  A
O63        V1410   1.864       .  S
O63          C68   1.255       .  A
O64          V66   1.867       .  S
O64        C1411   1.255       .  A
V65        V1410   2.084       .  T
V66        O1405   1.922       .  S
V66        O1407   1.866       .  S
V66        V1409   2.085       .  T
C67        O1408   1.254       .  A
C67        C2480   1.486       .  S
C68        C1167   1.482       .  S
C69        O1406   1.272   1_545  A
C69        C1307   1.479       .  S
C70        C1150   1.480       .  S
O71          V79   1.917       .  S
O71          C81   1.271       .  A
O72          V79   1.918       .  S
O72          C82   1.270       .  A
O73          V79   1.870       .  S
O73          C83   1.257       .  A
O74          V79   1.868       .  S
O74          C84   1.256       .  A
O75          V80   1.916       .  S
O75          C84   1.271       .  A
O76          V80   1.918       .  S
O76          C83   1.271       .  A
O77          V80   1.870       .  S
O77          C82   1.256       .  A
O78          V80   1.880       .  S
O78          C81   1.259       .  A
V79          V80   2.084       .  T
C81        C1279   1.488       .  S
C82        C1122   1.475       .  S
C83        C1108   1.480       .  S
C84        C1164   1.482       .  S
O85          V93   1.923       .  S
O85          C95   1.273       .  A
O86          V93   1.923       .  S
O86          C96   1.271       .  A
O87          V93   1.868       .  S
O87          C97   1.255       .  A
O88          V93   1.870       .  S
O88          C98   1.257       .  A
O89          V94   1.918       .  S
O89          C98   1.271       .  A
O90          V94   1.916       .  S
O90          C97   1.270       .  A
O91          V94   1.871       .  S
O91          C96   1.256       .  A
O92          V94   1.876       .  S
O92          C95   1.257       .  A
V93          V94   2.084       .  T
C95        C1153   1.487       .  S
C96        C1223   1.474       .  S
C97        C1097   1.470       .  S
C98        C1080   1.486       .  S
O99         V107   1.917       .  S
O99         C109   1.271       .  A
O100        V107   1.913       .  S
O100        C110   1.271       .  A
O101        V107   1.867       .  S
O101        C111   1.256       .  A
O102        V107   1.867       .  S
O102        C112   1.255       .  A
O103        V108   1.917       .  S
O103        C112   1.271       .  A
O104        V108   1.920       .  S
O104        C111   1.271       .  A
O105        V108   1.877       .  S
O105        C110   1.257       .  A
O106        V108   1.882       .  S
O106        C109   1.259       .  A
V107        V108   2.085       .  T
C109       C1195   1.488       .  S
C110       C1125   1.481       .  S
C111       C1069   1.481       .  S
C112       C1094   1.471       .  S
O113        V121   1.920       .  S
O113        C123   1.271       .  A
O114        V121   1.919       .  S
O114        C124   1.272       .  A
O115        V121   1.872       .  S
O115        C125   1.257       .  A
O116        V121   1.871       .  S
O116        C126   1.257       .  A
O117        V122   1.911       .  S
O117        C126   1.269       .  A
O118        V122   1.912       .  S
O118        C125   1.269       .  A
O119        V122   1.873       .  S
O119        C124   1.256       .  A
O120        V122   1.875       .  S
O120        C123   1.258       .  A
V121        V122   2.083       .  T
C123       C1038   1.488       .  S
C124       C1024   1.484       .  S
C125       C1010   1.480       .  S
C126       C1052   1.472       .  S
O127        V135   1.923       .  S
O127        C137   1.272       .  A
O128        V135   1.921       .  S
O128        C138   1.272       .  A
O129        V135   1.870       .  S
O129        C139   1.257       .  A
O130        V135   1.876       .  S
O130        C140   1.257       .  A
O131        V136   1.910       .  S
O131        C140   1.269       .  A
O132        V136   1.910       .  S
O132        C139   1.268       .  A
O133        V136   1.870       .  S
O133        C138   1.255       .  A
O134        V136   1.876       .  S
O134        C137   1.258       .  A
V135        V136   2.083       .  T
C137        C996   1.491       .  S
C138        C985   1.485       .  S
C139       C1055   1.472       .  S
C140        C968   1.475       .  S
O141        V149   1.928       .  S
O141        C151   1.273       .  A
O142        V149   1.922       .  S
O142        C152   1.273       .  A
O143        V149   1.880       .  S
O143        C153   1.258       .  A
O144        V149   1.876       .  S
O144        C154   1.258       .  A
O145        V150   1.920       .  S
O145        C154   1.271       .  A
O146        V150   1.919       .  S
O146        C153   1.271       .  A
O147        V150   1.870       .  S
O147        C152   1.255       .  A
O148        V150   1.873       .  S
O148        C151   1.256       .  A
V149        V150   2.083       .  T
C151        C940   1.487       .  S
C152       C1027   1.487       .  S
C153        C926   1.486       .  S
C154        C954   1.483       .  S
O155        V163   1.922       .  S
O155        C165   1.272       .  A
O156        V163   1.919       .  S
O156        C166   1.271       .  A
O157        V163   1.874       .  S
O157        C167   1.257       .  A
O158        V163   1.874       .  S
O158        C168   1.257       .  A
O159        V164   1.917       .  S
O159        C168   1.271       .  A
O160        V164   1.918       .  S
O160        C167   1.271       .  A
O161        V164   1.877       .  S
O161        C166   1.257       .  A
O162        V164   1.878       .  S
O162        C165   1.258       .  A
V163        V164   2.084       .  T
C165        C999   1.492       .  S
C166        C912   1.482       .  S
C167        C957   1.481       .  S
C168        C898   1.486       .  S
O169        V177   1.914       .  S
O169        C179   1.270       .  A
O170        V177   1.915       .  S
O170        C180   1.269       .  A
O171        V177   1.872       .  S
O171        C181   1.257       .  A
O172        V177   1.873       .  S
O172        C182   1.256       .  A
O173        V178   1.913       .  S
O173        C182   1.268       .  A
O174        V178   1.909       .  S
O174        C181   1.268       .  A
O175        V178   1.880       .  S
O175        C180   1.259       .  A
O176        V178   1.887       .  S
O176        C179   1.261       .  A
V177        V178   2.088       .  T
C179        C873   1.492       .  S
C180        C915   1.475       .  S
C181        C884   1.463       .  S
C182        C856   1.463       .  S
O183        V191   1.920       .  S
O183        C193   1.272       .  A
O184        V191   1.922       .  S
O184        C194   1.272       .  A
O185        V191   1.869       .  S
O185        C195   1.255       .  A
O186        V191   1.869       .  S
O186        C196   1.255       .  A
O187        V192   1.913       .  S
O187        C196   1.269       .  A
O188        V192   1.916       .  S
O188        C195   1.269       .  A
O189        V192   1.877       .  S
O189        C194   1.259       .  A
O190        V192   1.883       .  S
O190        C193   1.258       .  A
V191        V192   2.085       .  T
C193        C943   1.490       .  S
C194        C845   1.491       .  S
C195        C828   1.468       .  S
C196        C887   1.463       .  S
O197       V1549   1.925       .  S
O197        C207   1.272   1_565  A
O198        V205   1.917   1_455  S
O198        C208   1.272       .  A
O199       V1549   1.871       .  S
O199        C209   1.256   1_565  A
O200        V205   1.874       .  S
O200       C1554   1.258       .  A
O201        V206   1.921       .  S
O201        C210   1.271       .  A
O202        V206   1.919       .  S
O202        C209   1.271       .  A
O203        V206   1.872   1_455  S
O203       C1552   1.255       .  A
O204        V206   1.874       .  S
O204        C207   1.258       .  A
V205       O1541   1.921       .  S
V205       O1543   1.871       .  S
V205       V1550   2.083       .  T
V206       V1549   2.083   1_545  T
C207        C870   1.489       .  S
C208       O1547   1.256       .  A
C208        C982   1.483       .  S
C209        C814   1.480       .  S
C210       O1544   1.257   1_545  A
C210       C2144   1.488   1_545  S
O211        V219   1.924   1_455  S
O211        C221   1.272       .  A
O212        V219   1.924       .  S
O212        C222   1.273       .  A
O213        V219   1.872       .  S
O213        C223   1.256       .  A
O214        V219   1.868       .  S
O214        C224   1.256       .  A
O215        V220   1.922       .  S
O215        C224   1.272       .  A
O216        V220   1.923       .  S
O216        C223   1.273       .  A
O217        V220   1.875       .  S
O217        C222   1.257       .  A
O218       V1564   1.879   1_455  S
O218       C1565   1.259       .  A
V219        V220   2.082       .  T
V220       O1562   1.877   1_655  S
C221       O1562   1.258       .  A
C221       C2385   1.493       .  S
C222        C842   1.490       .  S
C223        C786   1.489       .  S
C224        C817   1.481       .  S
O225        V233   1.923       .  S
O225        C235   1.272       .  A
O226        V233   1.920       .  S
O226        C236   1.272       .  A
O227        V233   1.866       .  S
O227        C237   1.256       .  A
O228        V233   1.868       .  S
O228        C238   1.255       .  A
O229        V234   1.919       .  S
O229        C238   1.271       .  A
O230        V234   1.917       .  S
O230        C237   1.271       .  A
O231        V234   1.872       .  S
O231        C236   1.257       .  A
O232        V234   1.876       .  S
O232        C235   1.258       .  A
V233        V234   2.084       .  T
C235        C758   1.488       .  S
C236        C744   1.484       .  S
C237        C772   1.480       .  S
C238        C859   1.474       .  S
O239        V247   1.918       .  S
O239        C249   1.270       .  A
O240        V247   1.913       .  S
O240        C250   1.270       .  A
O241        V247   1.874       .  S
O241        C251   1.256       .  A
O242        V247   1.872       .  S
O242        C252   1.257       .  A
O243        V248   1.912       .  S
O243        C252   1.269       .  A
O244        V248   1.912       .  S
O244        C251   1.268       .  A
O245        V248   1.882       .  S
O245        C250   1.259       .  A
O246        V248   1.882       .  S
O246        C249   1.260       .  A
V247        V248   2.083       .  T
C249        C730   1.491       .  S
C250        C716   1.487       .  S
C251       C1251   1.463       .  S
C252        C775   1.480       .  S
O253        V261   1.925   1_455  S
O253        C263   1.273       .  A
O254        V261   1.925       .  S
O254        C264   1.272       .  A
O255        V261   1.876       .  S
O255        C265   1.256       .  A
O256        V261   1.872       .  S
O256        C266   1.257       .  A
O257        V262   1.913       .  S
O257        C266   1.269       .  A
O258        V262   1.913       .  S
O258        C265   1.271       .  A
O259        V262   1.869       .  S
O259        C264   1.257       .  A
O260        V262   1.875   1_455  S
O260        C263   1.256       .  A
V261        V262   2.083       .  T
C263        C688   1.493       .  S
C264        C719   1.483       .  S
C265       C1181   1.485       .  S
C266        C702   1.475       .  S
O267        V275   1.915       .  S
O267        C277   1.271       .  A
O268        V275   1.913   1_455  S
O268        C278   1.270       .  A
O269        V275   1.873       .  S
O269        C279   1.257       .  A
O270        V275   1.876       .  S
O270        C280   1.258       .  A
O271        V276   1.917       .  S
O271        C280   1.270       .  A
O272        V276   1.911       .  S
O272        C279   1.269       .  A
O273        V276   1.875   1_455  S
O273        C278   1.258       .  A
O274        V276   1.882       .  S
O274        C277   1.259       .  A
V275        V276   2.084       .  T
C277        C761   1.490       .  S
C278        C674   1.484       .  S
C279        C705   1.474       .  S
C280        C803   1.482       .  S
O281        V289   1.923       .  S
O281        C291   1.273       .  A
O282        V289   1.923       .  S
O282        C292   1.271       .  A
O283        V289   1.876       .  S
O283        C293   1.258       .  A
O284        V289   1.871       .  S
O284        C294   1.256       .  A
O285        V290   1.912       .  S
O285        C294   1.270       .  A
O286        V290   1.914       .  S
O286        C293   1.270       .  A
O287        V290   1.873       .  S
O287        C292   1.256       .  A
O288        V290   1.879   1_565  S
O288        C291   1.257   1_565  A
V289        V290   2.085       .  T
C291        C691   1.491       .  S
C292        C646   1.474       .  S
C293       C1066   1.485       .  S
C294        C663   1.471       .  S
O295       V1647   1.919   1_545  S
O295        C305   1.271       .  A
O296        V303   1.918       .  S
O296        C306   1.271       .  A
O297       V1647   1.868       .  S
O297        C307   1.255   1_565  A
O298        V303   1.870       .  S
O298        C308   1.255       .  A
O299        V304   1.917       .  S
O299       C1652   1.272   1_545  A
O300        V304   1.916       .  S
O300        C307   1.270       .  A
O301        V304   1.868       .  S
O301       C1650   1.257   1_545  A
O302        V304   1.876       .  S
O302        C305   1.258       .  A
V303       O1639   1.916       .  S
V303       O1641   1.872       .  S
V303       V1648   2.084       .  T
V304       V1647   2.083   1_545  T
C305        C635   1.489       .  S
C306       O1645   1.257       .  A
C306        C677   1.481       .  S
C307        C660   1.471       .  S
C308       O1643   1.271       .  A
C308        C971   1.484       .  S
O309        V317   1.922       .  S
O309        C319   1.272       .  A
O310        V317   1.922       .  S
O310        C320   1.272       .  A
O311        V317   1.867       .  S
O311        C321   1.255       .  A
O312        V317   1.866       .  S
O312        C322   1.256       .  A
O313        V318   1.922       .  S
O313        C322   1.271       .  A
O314        V318   1.918       .  S
O314        C321   1.271       .  A
O315        V318   1.869       .  S
O315        C320   1.256       .  A
O316        V318   1.874       .  S
O316        C319   1.257       .  A
V317        V318   2.084       .  T
C319        C632   1.486       .  S
C320        C747   1.478       .  S
C321        C618   1.471       .  S
C322        C901   1.483       .  S
O323        V331   1.920       .  S
O323        C333   1.271       .  A
O324        V331   1.921       .  S
O324        C334   1.271       .  A
O325        V331   1.874       .  S
O325        C335   1.256       .  A
O326        V331   1.869       .  S
O326        C336   1.255       .  A
O327        V332   1.915       .  S
O327        C336   1.270       .  A
O328        V332   1.913       .  S
O328        C335   1.269       .  A
O329        V332   1.878       .  S
O329        C334   1.257       .  A
O330        V332   1.879       .  S
O330        C333   1.259       .  A
V331        V332   2.086       .  T
C333        C733   1.491       .  S
C334        C649   1.481       .  S
C335       C1111   1.470       .  S
C336        C621   1.470       .  S
O337        V345   1.913       .  S
O337        C347   1.270       .  A
O338        V345   1.917       .  S
O338        C348   1.270       .  A
O339        V345   1.872       .  S
O339        C349   1.258       .  A
O340        V345   1.871       .  S
O340        C350   1.256       .  A
O341        V346   1.913       .  S
O341        C350   1.269       .  A
O342        V346   1.912       .  S
O342        C349   1.269       .  A
O343        V346   1.872       .  S
O343        C348   1.257       .  A
O344        V346   1.878       .  S
O344        C347   1.258       .  A
V345        V346   2.085       .  T
C347        C590   1.478       .  S
C348        C576   1.483       .  S
C349       C1013   1.481       .  S
C350        C604   1.468       .  S
O351        V359   1.919       .  S
O351        C361   1.271       .  A
O352        V359   1.920       .  S
O352        C362   1.272       .  A
O353        V359   1.867       .  S
O353        C363   1.255       .  A
O354        V359   1.868       .  S
O354        C364   1.256       .  A
O355        V360   1.920       .  S
O355        C364   1.271       .  A
O356        V360   1.917       .  S
O356        C363   1.270       .  A
O357        V360   1.875       .  S
O357        C362   1.257       .  A
O358        V360   1.878       .  S
O358        C361   1.258       .  A
V359        V360   2.083       .  T
C361        C562   1.478       .  S
C362        C548   1.482       .  S
C363        C607   1.468       .  S
C364       C1083   1.480       .  S
O365        V373   1.923       .  S
O365        C375   1.272       .  A
O366        V373   1.923       .  S
O366        C376   1.272       .  A
O367        V373   1.871       .  S
O367        C377   1.254       .  A
O368        V373   1.863       .  S
O368        C378   1.255       .  A
O369        V374   1.914       .  S
O369        C378   1.270       .  A
O370        V374   1.914       .  S
O370        C377   1.271       .  A
O371        V374   1.868       .  S
O371        C376   1.256       .  A
O372        V374   1.877       .  S
O372        C375   1.258       .  A
V373        V374   2.083       .  T
C375        C520   1.493       .  S
C376        C506   1.484       .  S
C377        C831   1.481       .  S
C378        C534   1.475       .  S
O379        V387   1.915       .  S
O379        C389   1.270       .  A
O380        V387   1.912       .  S
O380        C390   1.270       .  A
O381        V387   1.868       .  S
O381        C391   1.255       .  A
O382        V387   1.872       .  S
O382        C392   1.255       .  A
O383        V388   1.932       .  S
O383        C392   1.275       .  A
O384       V1732   1.925       .  S
O384       C1735   1.272       .  A
O385        V388   1.865       .  S
O385        C390   1.255       .  A
O386        V388   1.867       .  S
O386        C389   1.256       .  A
V387        V388   2.083       .  T
V388       O1728   1.932   1_545  S
C389       C1293   1.483       .  S
C390        C537   1.475       .  S
C391       O1728   1.274   1_545  A
C391       C1822   1.483       .  S
C392        C492   1.493       .  S
O393        V401   1.919       .  S
O393        C403   1.271       .  A
O394        V401   1.917       .  S
O394        C404   1.271       .  A
O395        V401   1.872       .  S
O395        C405   1.257       .  A
O396        V401   1.869       .  S
O396        C406   1.255       .  A
O397        V402   1.921       .  S
O397        C406   1.271       .  A
O398        V402   1.927       .  S
O398        C405   1.273       .  A
O399        V402   1.871       .  S
O399        C404   1.257       .  A
O400        V402   1.874       .  S
O400        C403   1.258       .  A
V401        V402   2.084       .  T
C403        C523   1.486       .  S
C404        C579   1.485       .  S
C405        C929   1.492       .  S
C406        C464   1.471       .  S
O407        V415   1.919       .  S
O407        C417   1.271       .  A
O408        V415   1.916       .  S
O408        C418   1.270       .  A
O409        V415   1.871       .  S
O409        C419   1.256       .  A
O410        V415   1.872       .  S
O410        C420   1.256       .  A
O411        V416   1.918       .  S
O411        C420   1.271       .  A
O412        V416   1.916       .  S
O412        C419   1.270       .  A
O413        V416   1.877       .  S
O413        C418   1.257       .  A
O414        V416   1.877       .  S
O414        C417   1.257       .  A
V415        V416   2.087       .  T
C417        C565   1.482       .  S
C418        C481   1.470       .  S
C419        C467   1.471       .  S
C420       C1139   1.473       .  S
O421        V429   1.917   1_455  S
O421        C431   1.270       .  A
O422        V429   1.915       .  S
O422        C432   1.270       .  A
O423        V429   1.874       .  S
O423        C433   1.256       .  A
O424        V429   1.870       .  S
O424        C434   1.256       .  A
O425        V430   1.918       .  S
O425        C434   1.271       .  A
O426        V430   1.921       .  S
O426        C433   1.271       .  A
O427        V430   1.875       .  S
O427        C432   1.258       .  A
O428        V430   1.874   1_455  S
O428        C431   1.257       .  A
V429        V430   2.084       .  T
C431        C593   1.475       .  S
C432        C509   1.485       .  S
C433        C789   1.476       .  S
C434        C453   1.472       .  S
O435        V443   1.926       .  S
O435        C445   1.275       .  A
O436        V443   1.925   1_455  S
O436        C446   1.272       .  A
O437        V443   1.865       .  S
O437        C447   1.253       .  A
O438        V443   1.866       .  S
O438        C448   1.254       .  A
O439        V444   1.927       .  S
O439        C448   1.274       .  A
O440        V444   1.923       .  S
O440        C447   1.272       .  A
O441        V444   1.870   1_455  S
O441        C446   1.255       .  A
O442        V444   1.877       .  S
O442        C445   1.255       .  A
V443        V444   2.082       .  T
C445        C495   1.496       .  S
C446        C551   1.476       .  S
C447        C450   1.475       .  S
C448       C1209   1.489       .  S
C449        C450   1.398   1_456  A
C449        C454   1.404       .  A
C449        H456   1.084   1_556  S
C450        C451   1.422   1_554  A
C451        C452   1.396       .  A
C451        N458   1.434   1_556  S
C452        C453   1.396       .  A
C452        H457   1.084       .  S
C453        C454   1.417   1_655  A
C454        N455   1.439       .  S
N455        H459   1.046       .  S
N455        H460   1.046       .  S
N458        H461   1.044       .  S
N458        H462   1.046       .  S
C463        C464   1.397       .  A
C463        C468   1.400       .  A
C463        H470   1.084       .  S
C464        C465   1.423       .  A
C465        C466   1.400       .  A
C465        N472   1.441       .  S
C466        C467   1.398   1_556  A
C466        H471   1.084   1_556  S
C467        C468   1.422   1_554  A
C468        N469   1.441   1_556  S
N469        H473   1.046   1_554  S
N469        H474   1.043       .  S
N472        H475   1.043       .  S
N472        H476   1.046       .  S
C477        C478   1.400       .  A
C477        C482   1.407       .  A
C477        H484   1.084       .  S
C478       C1735   1.478       .  S
C478       C1823   1.419       .  A
C479       C1822   1.420       .  A
C479       C1824   1.404       .  A
C479        N486   1.439       .  S
C480        C481   1.395       .  A
C480       C1823   1.402       .  A
C480       H1829   1.084       .  S
C481        C482   1.414       .  A
C482        N483   1.438       .  S
N483        H487   1.046       .  S
N483        H488   1.046       .  S
H485       C1824   1.084       .  S
N486        H489   1.046       .  S
N486        H490   1.046       .  S
C491        C492   1.399       .  A
C491        C496   1.402       .  A
C491        H498   1.084       .  S
C492        C493   1.423       .  A
C493        C494   1.407       .  A
C493        N500   1.439       .  S
C494        C495   1.400       .  A
C494        H499   1.083       .  S
C495        C496   1.429       .  A
C496        N497   1.433       .  S
N497        H501   1.045       .  S
N497        H502   1.045       .  S
N500        H503   1.046       .  S
N500        H504   1.046       .  S
C505        C506   1.411       .  A
C505        C510   1.395       .  A
C505        H512   1.084       .  S
C506        C507   1.408       .  A
C507        C508   1.406       .  A
C507        N514   1.438       .  S
C508        C509   1.413       .  A
C508        H513   1.083       .  S
C509        C510   1.411       .  A
C510        N511   1.432       .  S
N511        H515   1.045       .  S
N511        H516   1.045       .  S
N514        H517   1.045       .  S
N514        H518   1.046       .  S
C519        C524   1.405       .  A
C519       C1864   1.414       .  A
C519        H526   1.083       .  S
C520        C521   1.413       .  A
C520       C1863   1.413   1_545  A
C521       C1866   1.401       .  A
C521        N528   1.432       .  S
C522        C523   1.411       .  A
C522       C1865   1.398       .  A
C522        H527   1.084       .  S
C523        C524   1.408       .  A
C524        N525   1.438       .  S
N525        H529   1.046       .  S
N525        H530   1.045       .  S
N528        H531   1.045       .  S
N528        H532   1.045       .  S
C533        C534   1.410       .  A
C533        C538   1.398       .  A
C533        H540   1.083       .  S
C534        C535   1.406       .  A
C535        C536   1.402       .  A
C535        N542   1.438   1_545  S
C536        C537   1.412   1_556  A
C536        H541   1.083   1_546  S
C537        C538   1.404   1_554  A
C538        N539   1.438   1_556  S
N539        H543   1.046   1_554  S
N539        H544   1.046       .  S
N542        H545   1.046       .  S
N542       H1890   1.046       .  S
H546       N1886   1.046       .  S
C547        C548   1.399       .  A
C547        C552   1.400       .  A
C547        H554   1.084       .  S
C548        C549   1.422       .  A
C549        C550   1.407       .  A
C549        N556   1.438       .  S
C550        C551   1.398       .  A
C550        H555   1.084       .  S
C551        C552   1.413       .  A
C552        N553   1.433       .  S
N553        H557   1.046       .  S
N553        H558   1.046       .  S
N556        H559   1.046       .  S
N556        H560   1.046       .  S
C561        C562   1.398       .  A
C561        C566   1.406       .  A
C561        H568   1.084       .  S
C562        C563   1.416       .  A
C563        C564   1.405       .  A
C563        N570   1.439       .  S
C564        C565   1.400       .  A
C564        H569   1.084       .  S
C565        C566   1.419       .  A
C566        N567   1.438       .  S
N567        H571   1.046       .  S
N567        H572   1.046       .  S
N570        H573   1.046       .  S
N570        H574   1.046       .  S
C575        C576   1.411       .  A
C575        C580   1.403       .  A
C575        H582   1.083       .  S
C576        C577   1.408       .  A
C577        C578   1.404       .  A
C577        N584   1.438       .  S
C578        C579   1.412       .  A
C578        H583   1.083       .  S
C579        C580   1.408       .  A
C580        N581   1.438       .  S
N581        H585   1.046       .  S
N581        H586   1.046       .  S
N584        H587   1.046       .  S
N584        H588   1.046       .  S
C589        C590   1.399       .  A
C589        C594   1.403       .  A
C589        H596   1.084       .  S
C590        C591   1.418       .  A
C591        C592   1.405       .  A
C591        N598   1.438       .  S
C592        C593   1.398       .  A
C592        H597   1.084       .  S
C593        C594   1.417       .  A
C594        N595   1.439       .  S
N595        H599   1.046       .  S
N595        H600   1.046       .  S
N598        H601   1.046       .  S
N598        H602   1.046       .  S
C603        C604   1.398       .  A
C603        C608   1.398       .  A
C603        H610   1.084       .  S
C604        C605   1.415       .  A
C605        C606   1.404       .  A
C605        N612   1.438       .  S
C606        C607   1.399   1_556  A
C606        H611   1.084   1_556  S
C607        C608   1.412   1_554  A
C608        N609   1.433   1_556  S
N609        H613   1.046   1_554  S
N609        H614   1.046       .  S
N612        H615   1.046       .  S
N612        H616   1.046       .  S
C617        C618   1.397       .  A
C617        C622   1.399       .  A
C617        H624   1.084       .  S
C618        C619   1.418       .  A
C619        C620   1.403       .  A
C619        N626   1.439       .  S
C620        C621   1.397       .  A
C620        H625   1.084       .  S
C621        C622   1.414       .  A
C622        N623   1.433       .  S
N623        H627   1.046       .  S
N623        H628   1.046       .  S
N626        H629   1.046       .  S
N626        H630   1.046       .  S
C631        C632   1.411       .  A
C631        C636   1.405       .  A
C631        H638   1.083       .  S
C632        C633   1.407       .  A
C633        C634   1.406       .  A
C633        N640   1.438       .  S
C634        C635   1.413       .  A
C634        H639   1.083       .  S
C635        C636   1.410       .  A
C636        N637   1.438   1_545  S
N637        H641   1.046       .  S
N637        H642   1.046       .  S
N640        H643   1.046       .  S
N640        H644   1.046       .  S
C645        C646   1.398       .  A
C645        C650   1.405       .  A
C645        H652   1.084       .  S
C646        C647   1.422       .  A
C647        C648   1.402       .  A
C647        N654   1.440       .  S
C648        C649   1.399       .  A
C648        H653   1.084       .  S
C649        C650   1.418       .  A
C650        N651   1.438       .  S
N651        H655   1.046       .  S
N651        H656   1.046       .  S
N654        H657   1.042       .  S
N654        H658   1.046       .  S
C659        C660   1.399       .  A
C659        C664   1.403       .  A
C659        H666   1.084       .  S
C660        C661   1.416       .  A
C661        C662   1.401       .  A
C661        N668   1.439   1_545  S
C662        C663   1.398       .  A
C662        H667   1.084   1_545  S
C663        C664   1.416       .  A
C664        N665   1.438       .  S
N665        H669   1.046       .  S
N665        H670   1.046       .  S
N668       H2015   1.046   1_565  S
N668       H2016   1.046       .  S
H671       N2012   1.046       .  S
H672       N2012   1.046       .  S
C673        C674   1.412       .  A
C673        C678   1.401       .  A
C673        H680   1.083       .  S
C674        C675   1.410       .  A
C675        C676   1.403       .  A
C675        N682   1.438       .  S
C676        C677   1.410       .  A
C676       H2025   1.083       .  S
C677        C678   1.404       .  A
C678        N679   1.432       .  S
N679        H683   1.046       .  S
N679        H684   1.046       .  S
H681       C2020   1.083       .  S
N682        H685   1.045       .  S
N682       H2030   1.046       .  S
H686       N2026   1.046       .  S
C687        C688   1.403       .  A
C687        C692   1.408       .  A
C687        H694   1.083       .  S
C688       C2033   1.427       .  A
C689        C690   1.400       .  A
C689       C2032   1.428   1_545  A
C689        N696   1.433       .  S
C690        C691   1.398       .  A
C690        H695   1.084       .  S
C691       C2036   1.422   1_545  A
C692       C2035   1.418       .  A
C692        N693   1.439       .  S
N693        H697   1.046       .  S
N693        H698   1.046       .  S
N696        H699   1.045       .  S
N696        H700   1.045       .  S
C701        C702   1.407   1_455  A
C701        C706   1.395       .  A
C701        H708   1.084       .  S
C702        C703   1.411       .  A
C703        C704   1.397       .  A
C703        N710   1.432       .  S
C704        C705   1.408       .  A
C704        H709   1.084       .  S
C705        C706   1.410   1_655  A
C706        N707   1.433       .  S
N707        H711   1.045       .  S
N707        H712   1.046       .  S
N710        H713   1.046       .  S
N710        H714   1.045       .  S
C715        C716   1.412       .  A
C715        C720   1.400       .  A
C715        H722   1.083       .  S
C716        C717   1.411       .  A
C717        C718   1.404       .  A
C717        N724   1.438       .  S
C718        C719   1.409       .  A
C718        H723   1.084       .  S
C719        C720   1.410       .  A
C720        N721   1.432       .  S
N721        H725   1.045       .  S
N721        H726   1.046       .  S
N724        H727   1.046       .  S
N724        H728   1.046       .  S
C729        C730   1.412       .  A
C729        C734   1.407       .  A
C729        H736   1.083       .  S
C730        C731   1.413       .  A
C731        C732   1.399       .  A
C731        N738   1.432       .  S
C732        C733   1.411       .  A
C732        H737   1.084       .  S
C733        C734   1.410       .  A
C734        N735   1.438       .  S
N735        H739   1.046       .  S
N735        H740   1.046       .  S
N738        H741   1.045       .  S
N738        H742   1.045       .  S
C743        C744   1.412       .  A
C743        C748   1.405       .  A
C743        H750   1.083       .  S
C744        C745   1.409       .  A
C745        C746   1.404       .  A
C745        N752   1.438       .  S
C746        C747   1.409       .  A
C746        H751   1.084       .  S
C747        C748   1.406       .  A
C748        N749   1.438       .  S
N749        H753   1.046       .  S
N749        H754   1.046       .  S
N752        H755   1.046       .  S
N752        H756   1.046       .  S
C757        C758   1.410       .  A
C757        C762   1.405       .  A
C757        H764   1.083       .  S
C758        C759   1.409       .  A
C759        C760   1.408       .  A
C759        N766   1.437       .  S
C760        C761   1.412       .  A
C760        H765   1.083       .  S
C761        C762   1.411       .  A
C762        N763   1.438       .  S
N763        H767   1.046       .  S
N763        H768   1.046       .  S
N766        H769   1.045       .  S
N766        H770   1.046       .  S
C771        C772   1.410       .  A
C771        C776   1.401       .  A
C771        H778   1.083       .  S
C772        C773   1.408       .  A
C773        C774   1.403       .  A
C773        N780   1.438       .  S
C774        C775   1.411       .  A
C774        H779   1.083       .  S
C775        C776   1.408       .  A
C776        N777   1.438       .  S
N777        H781   1.046       .  S
N777        H782   1.046       .  S
N780        H783   1.046       .  S
N780        H784   1.046       .  S
C785        C786   1.402       .  A
C785        C790   1.405       .  A
C785        H792   1.083       .  S
C786        C787   1.424       .  A
C787        C788   1.405       .  A
C787        N794   1.439   1_655  S
C788        C789   1.396       .  A
C788        H793   1.084       .  S
C789        C790   1.415       .  A
C790        N791   1.439       .  S
N791        H795   1.046       .  S
N791        H796   1.046       .  S
N794        H797   1.046       .  S
N794        H798   1.046       .  S
C799        C800   1.413       .  A
C799        C804   1.397       .  A
C799        H806   1.083       .  S
C800       C1554   1.488       .  S
C800        C801   1.410   1_655  A
C801        C802   1.406       .  A
C801       N2152   1.438       .  S
C802        C803   1.410   1_455  A
C802        H807   1.084       .  S
C803        C804   1.409       .  A
C804        N805   1.432       .  S
N805        H809   1.045   1_655  S
N805        H810   1.045       .  S
N808       C2145   1.438   1_455  S
N808        H811   1.046   1_455  S
N808        H812   1.045       .  S
C813        C814   1.411   1_565  A
C813        C818   1.404   1_565  A
C813        H820   1.083       .  S
C814        C815   1.407   1_655  A
C815        C816   1.403       .  A
C815        N822   1.438       .  S
C816        C817   1.411   1_455  A
C816        H821   1.084       .  S
C817        C818   1.407       .  A
C818        N819   1.438   1_545  S
N819        H823   1.046       .  S
N819        H824   1.046       .  S
N822       H2169   1.046       .  S
N822       H2170   1.046       .  S
H825       N2166   1.046   1_455  S
H826       N2166   1.046       .  S
C827        C828   1.396       .  A
C827        C832   1.397       .  A
C827        H834   1.084       .  S
C828        C829   1.416       .  A
C829        C830   1.395       .  A
C829        N836   1.434       .  S
C830        C831   1.401       .  A
C830        H835   1.084       .  S
C831        C832   1.425       .  A
C832        N833   1.433       .  S
N833        H837   1.045       .  S
N833        H838   1.045       .  S
N836        H839   1.046       .  S
N836        H840   1.044       .  S
C841        C842   1.413       .  A
C841        C846   1.406       .  A
C841        H848   1.083       .  S
C842        C843   1.409       .  A
C843        C844   1.406       .  A
C843        N850   1.438       .  S
C844        C845   1.412       .  A
C844        H849   1.083       .  S
C845        C846   1.409       .  A
C846        N847   1.438       .  S
N847        H851   1.046   1_545  S
N847        H852   1.046       .  S
N850        H853   1.046       .  S
N850        H854   1.046       .  S
C855        C856   1.394       .  A
C855        C860   1.401       .  A
C855        H862   1.084       .  S
C856        C857   1.415       .  A
C857        C858   1.398       .  A
C857        N864   1.433       .  S
C858        C859   1.400       .  A
C858        H863   1.084       .  S
C859        C860   1.419       .  A
C860        N861   1.438       .  S
N861        H865   1.046       .  S
N861        H866   1.045       .  S
N864        H867   1.044       .  S
N864        H868   1.046       .  S
C869        C870   1.410       .  A
C869        C874   1.404       .  A
C869        H876   1.083       .  S
C870        C871   1.409       .  A
C871        C872   1.410       .  A
C871        N878   1.437   1_545  S
C872        C873   1.413       .  A
C872        H877   1.083       .  S
C873        C874   1.411       .  A
C874        N875   1.438       .  S
N875        H879   1.046       .  S
N875        H880   1.046       .  S
N878        H881   1.046       .  S
N878        H882   1.046       .  S
C883        C884   1.399       .  A
C883        C888   1.398       .  A
C883        H890   1.084       .  S
C884        C885   1.419       .  A
C885        C886   1.399       .  A
C885        N892   1.440       .  S
C886        C887   1.398       .  A
C886        H891   1.084       .  S
C887        C888   1.409       .  A
C888        N889   1.433       .  S
N889        H893   1.046       .  S
N889        H894   1.046       .  S
N892        H895   1.043       .  S
N892        H896   1.046       .  S
C897        C898   1.413       .  A
C897        C902   1.399       .  A
C897        H904   1.084       .  S
C898        C899   1.411       .  A
C899        C900   1.395       .  A
C899        N906   1.432       .  S
C900        C901   1.411       .  A
C900        H905   1.084       .  S
C901        C902   1.410       .  A
C902        N903   1.432       .  S
N903        H907   1.044       .  S
N903        H908   1.046       .  S
N906        H909   1.045       .  S
N906        H910   1.045       .  S
C911        C912   1.400       .  A
C911        C916   1.405       .  A
C911        H918   1.084       .  S
C912        C913   1.420       .  A
C913        C914   1.405       .  A
C913        N920   1.439       .  S
C914        C915   1.398       .  A
C914        H919   1.084       .  S
C915        C916   1.414       .  A
C916        N917   1.438       .  S
N917        H921   1.046       .  S
N917        H922   1.046       .  S
N920        H923   1.046       .  S
N920        H924   1.046       .  S
C925        C926   1.412       .  A
C925        C930   1.410       .  A
C925        H932   1.084       .  S
C926        C927   1.409       .  A
C927        C928   1.396       .  A
C927        N934   1.432       .  S
C928        C929   1.413       .  A
C928        H933   1.083       .  S
C929        C930   1.411       .  A
C930        N931   1.437       .  S
N931        H935   1.046       .  S
N931        H936   1.045       .  S
N934        H937   1.046       .  S
N934        H938   1.045       .  S
C939        C940   1.399       .  A
C939        C944   1.407       .  A
C939        H946   1.084       .  S
C940        C941   1.418       .  A
C941        C942   1.403       .  A
C941        N948   1.433       .  S
C942        C943   1.400       .  A
C942        H947   1.084       .  S
C943        C944   1.420       .  A
C944        N945   1.432       .  S
N945        H949   1.046       .  S
N945        H950   1.046       .  S
N948        H951   1.046       .  S
N948        H952   1.046       .  S
C953        C954   1.411       .  A
C953        C958   1.405       .  A
C953        H960   1.083       .  S
C954        C955   1.408       .  A
C955        C956   1.405       .  A
C955        N962   1.438       .  S
C956        C957   1.410       .  A
C956        H961   1.084       .  S
C957        C958   1.407       .  A
C958        N959   1.438       .  S
N959        H963   1.046       .  S
N959        H964   1.046       .  S
N962        H965   1.046       .  S
N962        H966   1.046       .  S
C967        C968   1.396       .  A
C967        C972   1.394       .  A
C967        H974   1.084       .  S
C968        C969   1.414       .  A
C969        C970   1.401       .  A
C969        N976   1.433       .  S
C970        C971   1.402       .  A
C970        H975   1.084       .  S
C971        C972   1.427       .  A
C972        N973   1.433       .  S
N973        H977   1.045       .  S
N973        H978   1.045       .  S
N976        H979   1.046       .  S
N976        H980   1.046       .  S
C981        C982   1.398       .  A
C981        C986   1.403       .  A
C981        H988   1.083       .  S
C982       C2327   1.418       .  A
C983       C2326   1.421   1_545  A
C983       C2328   1.402       .  A
C983        N990   1.433       .  S
C984        C985   1.400       .  A
C984       C2327   1.402       .  A
C984       H2333   1.084       .  S
C985        C986   1.423       .  A
C986        N987   1.439       .  S
N987        H991   1.046       .  S
N987        H992   1.045       .  S
H989       C2328   1.084       .  S
N990        H993   1.046       .  S
N990        H994   1.046       .  S
C995        C996   1.412       .  A
C995       C1000   1.406       .  A
C995       H1002   1.083       .  S
C996        C997   1.409       .  A
C997        C998   1.407       .  A
C997       N1004   1.438       .  S
C998        C999   1.413       .  A
C998       H1003   1.083       .  S
C999       C1000   1.410       .  A
C1000      N1001   1.438       .  S
N1001      H1005   1.046       .  S
N1001      H1006   1.046       .  S
N1004      H1007   1.046       .  S
N1004      H1008   1.046       .  S
C1009      C1010   1.410       .  A
C1009      C1014   1.402       .  A
C1009      H1016   1.083       .  S
C1010      C1011   1.408       .  A
C1011      C1012   1.402       .  A
C1011      N1018   1.438       .  S
C1012      C1013   1.411       .  A
C1012      H1017   1.083       .  S
C1013      C1014   1.409       .  A
C1014      N1015   1.438       .  S
N1015      H1019   1.046       .  S
N1015      H1020   1.046       .  S
N1018      H1021   1.046       .  S
N1018      H1022   1.045       .  S
C1023      C1024   1.398       .  A
C1023      C1028   1.400       .  A
C1023      H1030   1.084       .  S
C1024      C1025   1.422       .  A
C1025      C1026   1.405       .  A
C1025      N1032   1.439       .  S
C1026      C1027   1.399       .  A
C1026      H1031   1.083       .  S
C1027      C1028   1.420       .  A
C1028      N1029   1.433       .  S
N1029      H1033   1.046       .  S
N1029      H1034   1.046       .  S
N1032      H1035   1.046       .  S
N1032      H1036   1.045       .  S
C1037      C1038   1.411       .  A
C1037      C2386   1.403       .  A
C1037      H1044   1.083       .  S
C1038      C1039   1.410       .  A
C1039      C1040   1.407       .  A
C1039      N1046   1.438       .  S
C1040      C1041   1.412       .  A
C1040      H1045   1.083       .  S
C1041      C1565   1.488       .  S
C1041      C2386   1.409       .  A
C1042      C2381   1.408       .  A
C1042      C2385   1.410       .  A
C1042      N1043   1.438       .  S
N1043      H1047   1.046       .  S
N1043      H1048   1.046       .  S
N1046      H1049   1.045       .  S
N1046      H1050   1.046       .  S
C1051      C1052   1.407       .  A
C1051      C1056   1.395       .  A
C1051      H1058   1.084       .  S
C1052      C1053   1.411       .  A
C1053      C1054   1.395       .  A
C1053      N1060   1.432       .  S
C1054      C1055   1.407       .  A
C1054      H1059   1.084       .  S
C1055      C1056   1.411       .  A
C1056      N1057   1.432       .  S
N1057      H1061   1.045       .  S
N1057      H1062   1.045       .  S
N1060      H1063   1.046       .  S
N1060      H1064   1.044       .  S
C1065      C1066   1.413       .  A
C1065      C1070   1.406       .  A
C1065      H1072   1.083       .  S
C1066      C1067   1.411       .  A
C1067      C1068   1.394       .  A
C1067      N1074   1.432       .  S
C1068      C1069   1.409       .  A
C1068      H1073   1.084       .  S
C1069      C1070   1.407       .  A
C1070      N1071   1.438       .  S
N1071      H1075   1.046       .  S
N1071      H1076   1.046       .  S
N1074      H1077   1.045   1_545  S
N1074      H1078   1.045   1_545  S
C1079      C1080   1.414       .  A
C1079      C1084   1.398       .  A
C1079      H1086   1.083       .  S
C1080      C1081   1.412       .  A
C1081      C1082   1.396       .  A
C1081      N1088   1.432       .  S
C1082      C1083   1.410       .  A
C1082      H1087   1.084       .  S
C1083      C1084   1.408       .  A
C1084      N1085   1.432       .  S
N1085      H1089   1.045       .  S
N1085      H1090   1.046       .  S
N1088      H1091   1.045       .  S
N1088      H1092   1.046       .  S
C1093      C1094   1.396       .  A
C1093      C1098   1.401       .  A
C1093      H1100   1.084       .  S
C1094      C1095   1.418       .  A
C1095      C1096   1.402       .  A
C1095      N1102   1.439       .  S
C1096      C1097   1.396       .  A
C1096      H1101   1.084       .  S
C1097      C1098   1.417       .  A
C1098      N1099   1.439       .  S
N1099      H1103   1.046       .  S
N1099      H1104   1.046       .  S
N1102      H1105   1.046       .  S
N1102      H1106   1.046       .  S
C1107      C1108   1.409       .  A
C1107      C1112   1.397       .  A
C1107      H1114   1.084       .  S
C1108      C1109   1.408       .  A
C1109      C1110   1.405       .  A
C1109      N1116   1.438       .  S
C1110      C1111   1.408       .  A
C1110      H1115   1.084       .  S
C1111      C1112   1.413       .  A
C1112      N1113   1.440       .  S
N1113      H1117   1.046       .  S
N1113      H1118   1.040       .  S
N1116      H1119   1.046       .  S
N1116      H1120   1.046       .  S
C1121      C1122   1.398       .  A
C1121      C1126   1.405       .  A
C1121      H1128   1.084       .  S
C1122      C1123   1.416       .  A
C1123      C1124   1.401       .  A
C1123      N1130   1.439       .  S
C1124      C1125   1.400       .  A
C1124      H1129   1.084       .  S
C1125      C1126   1.421       .  A
C1126      N1127   1.438       .  S
N1127      H1131   1.046       .  S
N1127      H1132   1.046       .  S
N1130      H1133   1.046       .  S
N1130      H1134   1.046   1_545  S
C1135      C1136   1.401       .  A
C1135      C1140   1.405       .  A
C1135      H1142   1.083       .  S
C1136      C1411   1.485       .  S
C1136      C1137   1.421       .  A
C1137      C1138   1.399       .  A
C1137      N1144   1.433       .  S
C1138      C1139   1.394       .  A
C1138      H1143   1.084       .  S
C1139      C1140   1.417       .  A
C1140      N1141   1.438       .  S
N1141      H1145   1.046       .  S
N1141      H1146   1.046       .  S
N1144      H1147   1.046       .  S
N1144      H1148   1.046       .  S
C1149      C1150   1.397       .  A
C1149      C1154   1.407       .  A
C1149      H1156   1.084       .  S
C1150      C1151   1.417       .  A
C1151      C1152   1.405       .  A
C1151      N1158   1.439       .  S
C1152      C1153   1.400       .  A
C1152      H1157   1.083       .  S
C1153      C1154   1.422       .  A
C1154      N1155   1.438       .  S
N1155      H1159   1.046       .  S
N1155      H1160   1.046       .  S
N1158      H1161   1.046       .  S
N1158      H1162   1.046       .  S
C1163      C1164   1.412       .  A
C1163      C1168   1.402       .  A
C1163      H1170   1.083       .  S
C1164      C1165   1.407       .  A
C1165      C1166   1.402       .  A
C1165      N1172   1.438   1_545  S
C1166      C1167   1.413       .  A
C1166      H1171   1.083   1_545  S
C1167      C1168   1.406       .  A
C1168      N1169   1.438       .  S
N1169      H1173   1.046       .  S
N1169      H1174   1.046       .  S
N1172      H1175   1.046       .  S
N1172      H1176   1.046       .  S
C1177      C1178   1.399       .  A
C1177      C1182   1.407       .  A
C1177      H1184   1.084       .  S
C1178      C1179   1.420       .  A
C1179      C1180   1.394       .  A
C1179      N1186   1.434       .  S
C1180      C1181   1.399       .  A
C1180      H1185   1.084       .  S
C1181      C1182   1.423       .  A
C1182      N1183   1.438       .  S
N1183      H1187   1.046   1_655  S
N1183      H1188   1.046       .  S
N1186      H1189   1.046       .  S
N1186      H1190   1.044       .  S
C1191      C1192   1.412       .  A
C1191      C1196   1.405       .  A
C1191      H1198   1.083       .  S
C1192      C1193   1.411       .  A
C1193      C1194   1.408       .  A
C1193      N1200   1.438       .  S
C1194      C1195   1.411       .  A
C1194      H1199   1.083       .  S
C1195      C1196   1.409       .  A
C1196      N1197   1.438       .  S
N1197      H1201   1.046       .  S
N1197      H1202   1.046       .  S
N1200      H1203   1.046       .  S
N1200      H1204   1.046       .  S
C1205      C1206   1.394       .  A
C1205      C1210   1.403       .  A
C1205      H1212   1.084       .  S
C1206      C1207   1.416   1_655  A
C1207      C1208   1.406   1_455  A
C1207      N1214   1.438       .  S
C1208      C1209   1.402       .  A
C1208      H1213   1.083   1_655  S
C1209      C1210   1.426       .  A
C1210      N1211   1.439       .  S
N1211      H1215   1.046       .  S
N1211      H1216   1.046       .  S
N1214      H1217   1.046       .  S
N1214      H1218   1.046       .  S
C1219      C1220   1.400       .  A
C1219      C1224   1.401       .  A
C1219      H1226   1.084       .  S
C1220      C1221   1.425       .  A
C1221      C1222   1.400       .  A
C1221      N1228   1.433       .  S
C1222      C1223   1.397       .  A
C1222      H1227   1.084       .  S
C1223      C1224   1.413       .  A
C1224      N1225   1.433       .  S
N1225      H1229   1.046       .  S
N1225      H1230   1.046       .  S
N1228      H1231   1.044       .  S
N1228      H1232   1.046       .  S
C1233      C1234   1.410       .  A
C1233      C1238   1.403       .  A
C1233      H1240   1.083       .  S
C1234      C1235   1.408       .  A
C1235      C1236   1.405       .  A
C1235      N1242   1.438   1_655  S
C1236      C1237   1.411       .  A
C1236      H1241   1.083   1_655  S
C1237      C1238   1.407       .  A
C1238      N1239   1.438       .  S
N1239      H1243   1.046       .  S
N1239      H1244   1.046       .  S
N1242      H1245   1.046       .  S
N1242      H1246   1.046       .  S
C1247      C1248   1.400       .  A
C1247      C1252   1.401       .  A
C1247      H1254   1.084       .  S
C1248      C1249   1.413       .  A
C1249      C1250   1.398       .  A
C1249      N1256   1.433       .  S
C1250      C1251   1.396       .  A
C1250      H1255   1.084       .  S
C1251      C1252   1.419       .  A
C1252      N1253   1.440       .  S
N1253      H1257   1.046       .  S
N1253      H1258   1.043       .  S
N1256      H1259   1.046       .  S
N1256      H1260   1.046       .  S
C1261      C1262   1.397       .  A
C1261      C1266   1.403       .  A
C1261      H1268   1.084       .  S
C1262      C1263   1.418       .  A
C1263      C1264   1.405       .  A
C1263      N1270   1.438       .  S
C1264      C1265   1.399       .  A
C1264      H1269   1.084       .  S
C1265      C1266   1.418       .  A
C1266      N1267   1.433       .  S
N1267      H1271   1.046       .  S
N1267      H1272   1.046       .  S
N1270      H1273   1.045       .  S
N1270      H1274   1.046       .  S
C1275      C1276   1.412   1_545  A
C1275      C1280   1.404       .  A
C1275      H1282   1.083       .  S
C1276      C1369   1.490       .  S
C1276      C2621   1.410       .  A
C1277      C2620   1.409       .  A
C1277      C2622   1.408       .  A
C1277      N1284   1.438       .  S
C1278      C1279   1.412   1_565  A
C1278      C2621   1.408       .  A
C1278      H1283   1.083       .  S
C1279      C1280   1.409       .  A
C1280      N1281   1.438       .  S
N1281      H1285   1.046       .  S
N1281      H1286   1.046       .  S
N1284      H1287   1.045       .  S
N1284      H1288   1.046       .  S
C1289      C1290   1.408   1_545  A
C1289      C1294   1.396       .  A
C1289      H1296   1.084       .  S
C1290      C1291   1.405       .  A
C1291      C1292   1.400       .  A
C1291      N2642   1.438       .  S
C1292      C1293   1.413   1_565  A
C1292      H1297   1.083       .  S
C1293      C1294   1.412       .  A
C1294      N1295   1.432       .  S
N1295      H1299   1.045       .  S
N1295      H1300   1.045       .  S
N1298      C2635   1.438       .  S
N1298      H1301   1.046       .  S
N1298      H1302   1.045       .  S
C1303      C1304   1.401   1_545  A
C1303      C1308   1.406       .  A
C1303      H1310   1.084       .  S
C1304      C2649   1.426       .  A
C1305      C1306   1.398       .  A
C1305      C2648   1.425       .  A
C1305      N1312   1.433       .  S
C1306      C2651   1.396       .  A
C1306      H1311   1.084       .  S
C1307      C1308   1.418       .  A
C1307      C2650   1.396   1_545  A
C1308      N1309   1.439       .  S
N1309      H1313   1.046       .  S
N1309      H1314   1.046       .  S
N1312      H1315   1.044       .  S
N1312      H1316   1.046       .  S
C1317      C1318   1.412       .  A
C1317      C1322   1.404       .  A
C1317      H1324   1.084       .  S
C1318      C1319   1.412       .  A
C1319      C1320   1.400       .  A
C1319      N1326   1.432       .  S
C1320      C1321   1.412       .  A
C1320      H1325   1.084       .  S
C1321      C1322   1.414       .  A
C1322      N1323   1.432       .  S
N1323      H1327   1.046       .  S
N1323      H1328   1.045       .  S
N1326      H1330   1.046       .  S
N1326      H2673   1.045       .  S
H1329      N2670   1.045       .  S
C1331      C1336   1.405       .  A
C1331      C2676   1.410       .  A
C1331      H1338   1.083   1_565  S
C1332      C1333   1.404       .  A
C1332      C2675   1.410       .  A
C1333      C1334   1.397       .  A
C1333      N1340   1.433       .  S
C1334      C1335   1.409       .  A
C1334      H1339   1.084       .  S
C1335      C2680   1.408       .  A
C1336      C2679   1.410       .  A
C1336      N1337   1.438   1_565  S
N1337      H1341   1.046       .  S
N1337      H1342   1.045       .  S
N1340      H1343   1.046       .  S
N1340      H1344   1.046       .  S
O1345      V1353   1.922       .  S
O1346      V1353   1.922       .  S
O1346      C1356   1.272       .  A
O1347      V1353   1.868       .  S
O1348      V1353   1.866       .  S
O1348      C1358   1.256       .  A
O1349      V1354   1.910       .  S
O1350      V1354   1.911       .  S
O1350      C1357   1.269       .  A
O1351      C1356   1.257       .  A
O1352      V1354   1.878       .  S
O1352      C1355   1.259       .  A
C1355      C2662   1.494       .  S
C1356      C2648   1.488       .  S
C1357      C2676   1.480       .  S
C1358      C2634   1.470       .  S
O1359      V1367   1.923       .  S
O1359      C1369   1.272       .  A
O1360      V1367   1.923       .  S
O1360      C1370   1.272       .  A
O1361      V1367   1.877       .  S
O1361      C1371   1.257       .  A
O1362      V1367   1.872       .  S
O1362      C1372   1.258       .  A
O1364      V1368   1.920       .  S
O1364      C1371   1.272       .  A
O1365      V1368   1.870       .  S
O1365      C1370   1.255       .  A
V1367      V1368   2.083       .  T
C1370      C2606   1.475       .  S
C1371      C2592   1.486       .  S
C1372      C2679   1.482       .  S
O1373      V1381   1.919       .  S
O1373      C1383   1.271       .  A
O1374      V1381   1.916   1_455  S
O1374      C1384   1.271       .  A
O1375      V1381   1.869       .  S
O1375      C1385   1.256       .  A
O1376      V1381   1.872       .  S
O1376      C1386   1.256       .  A
O1377      V1382   1.922       .  S
O1377      C1386   1.271       .  A
O1378      V1382   1.918       .  S
O1378      C1385   1.271       .  A
O1379      V1382   1.879   1_455  S
O1379      C1384   1.256       .  A
O1380      V1382   1.882       .  S
O1380      C1383   1.259       .  A
V1381      V1382   2.085       .  T
C1383      C2665   1.493       .  S
C1384      C2564   1.479       .  S
C1385      C2578   1.480       .  S
C1386      C2550   1.472       .  S
O1387      V1395   1.927   1_455  S
O1387      C1397   1.273       .  A
O1388      V1395   1.924       .  S
O1388      C1398   1.273       .  A
O1389      V1395   1.862       .  S
O1389      C1399   1.252       .  A
O1390      V1395   1.863       .  S
O1390      C1400   1.254       .  A
O1391      V1396   1.922       .  S
O1391      C1400   1.272       .  A
O1392      V1396   1.924       .  S
O1392      C1399   1.273       .  A
O1393      V1396   1.871       .  S
O1393      C1398   1.255       .  A
O1394      V1396   1.875   1_455  S
O1394      C1397   1.258       .  A
V1395      V1396   2.083       .  T
C1397      C2536   1.494       .  S
C1398      C2609   1.481       .  S
C1399      C2522   1.482       .  S
C1400      C2581   1.480       .  S
O1401      V1409   1.922       .  S
O1401      C1411   1.273       .  A
O1402      V1409   1.913       .  S
O1402      C1412   1.270       .  A
O1403      V1409   1.878       .  S
O1403      C1413   1.257       .  A
O1404      V1409   1.879       .  S
O1404      C1414   1.257       .  A
O1405      C1414   1.271       .  A
O1406      V1410   1.922   1_565  S
O1407      C1412   1.256       .  A
O1408      V1410   1.864       .  S
C1412      C2511   1.477       .  S
C1413      C2651   1.478       .  S
C1414      C2494   1.478       .  S
O1415      V1423   1.920       .  S
O1415      C1425   1.272       .  A
O1416      V1423   1.921       .  S
O1416      C1426   1.272       .  A
O1417      V1423   1.866       .  S
O1417      C1427   1.255       .  A
O1418      V1423   1.863       .  S
O1418      C1428   1.255       .  A
O1419      V1424   1.916       .  S
O1419      C1428   1.271       .  A
O1420      V1424   1.917       .  S
O1420      C1427   1.271       .  A
O1421      V1424   1.874       .  S
O1421      C1426   1.257       .  A
O1422      V1424   1.881       .  S
O1422      C1425   1.259       .  A
V1423      V1424   2.084       .  T
C1425      C2623   1.492       .  S
C1426      C2466   1.481       .  S
C1427      C2452   1.479       .  S
C1428      C2508   1.478       .  S
O1429      V1437   1.927       .  S
O1429      C1439   1.274       .  A
O1430      V1437   1.927       .  S
O1430      C1440   1.273       .  A
O1431      V1437   1.864       .  S
O1431      C1441   1.254       .  A
O1432      V1437   1.868       .  S
O1432      C1442   1.256       .  A
O1433      V1438   1.922       .  S
O1433      C1442   1.272       .  A
O1434      V1438   1.922       .  S
O1434      C1441   1.272       .  A
O1435      V1438   1.866       .  S
O1435      C1440   1.254       .  A
O1436      V1438   1.873       .  S
O1436      C1439   1.256       .  A
V1437      V1438   2.083       .  T
C1439      C2497   1.485       .  S
C1440      C2567   1.481       .  S
C1441      C2441   1.474       .  S
C1442      C2424   1.488       .  S
O1443      V1451   1.921       .  S
O1443      C1453   1.272       .  A
O1444      V1451   1.919       .  S
O1444      C1454   1.272       .  A
O1445      V1451   1.865       .  S
O1445      C1455   1.255       .  A
O1446      V1451   1.865       .  S
O1446      C1456   1.254       .  A
O1447      V1452   1.920       .  S
O1447      C1456   1.272       .  A
O1448      V1452   1.924       .  S
O1448      C1455   1.271       .  A
O1449      V1452   1.878       .  S
O1449      C1454   1.257       .  A
O1450      V1452   1.883       .  S
O1450      C1453   1.259       .  A
V1451      V1452   2.085       .  T
C1453      C2539   1.492       .  S
C1454      C2469   1.487       .  S
C1455      C2413   1.475       .  S
C1456      C2438   1.474       .  S
O1457      V1465   1.921       .  S
O1457      C1467   1.271       .  A
O1458      V1465   1.920       .  S
O1458      C1468   1.270       .  A
O1459      V1465   1.869       .  S
O1459      C1469   1.257       .  A
O1460      V1465   1.870       .  S
O1460      C1470   1.257       .  A
O1461      V1466   1.911       .  S
O1461      C1470   1.269       .  A
O1462      V1466   1.915       .  S
O1462      C1469   1.270       .  A
O1463      V1466   1.872       .  S
O1463      C1468   1.256       .  A
O1464      V1466   1.879       .  S
O1464      C1467   1.259       .  A
V1465      V1466   2.084       .  T
C1467      C2382   1.489       .  S
C1468      C2368   1.474       .  S
C1469      C2354   1.483       .  S
C1470      C2396   1.482       .  S
O1471      V1479   1.922       .  S
O1471      C1481   1.272       .  A
O1472      V1479   1.921       .  S
O1472      C1482   1.271       .  A
O1473      V1479   1.869       .  S
O1473      C1483   1.257       .  A
O1474      V1479   1.872       .  S
O1474      C1484   1.256       .  A
O1475      V1480   1.915       .  S
O1475      C1484   1.270       .  A
O1476      V1480   1.912       .  S
O1476      C1483   1.269       .  A
O1477      V1480   1.871       .  S
O1477      C1482   1.256       .  A
O1478      V1480   1.878       .  S
O1478      C1481   1.258       .  A
V1479      V1480   2.084       .  T
C1481      C2340   1.488       .  S
C1482      C2329   1.479       .  S
C1483      C2399   1.482       .  S
C1484      C2312   1.477       .  S
O1485      V1493   1.922       .  S
O1485      C1495   1.271       .  A
O1486      V1493   1.917       .  S
O1486      C1496   1.272       .  A
O1487      V1493   1.876       .  S
O1487      C1497   1.258       .  A
O1488      V1493   1.873       .  S
O1488      C1498   1.257       .  A
O1489      V1494   1.923       .  S
O1489      C1498   1.272       .  A
O1490      V1494   1.922       .  S
O1490      C1497   1.271       .  A
O1491      V1494   1.876       .  S
O1491      C1496   1.256       .  A
O1492      V1494   1.875       .  S
O1492      C1495   1.257       .  A
V1493      V1494   2.084       .  T
C1495      C2284   1.482       .  S
C1496      C2371   1.482       .  S
C1497      C2270   1.484       .  S
C1498      C2298   1.488       .  S
O1499      V1507   1.923       .  S
O1499      C1509   1.272       .  A
O1500      V1507   1.923       .  S
O1500      C1510   1.272       .  A
O1501      V1507   1.879       .  S
O1501      C1511   1.258       .  A
O1502      V1507   1.878       .  S
O1502      C1512   1.258       .  A
O1503      V1508   1.917       .  S
O1503      C1512   1.270       .  A
O1504      V1508   1.917       .  S
O1504      C1511   1.271       .  A
O1505      V1508   1.872       .  S
O1505      C1510   1.256       .  A
O1506      V1508   1.876       .  S
O1506      C1509   1.258       .  A
V1507      V1508   2.083       .  T
C1509      C2343   1.492       .  S
C1510      C2256   1.485       .  S
C1511      C2301   1.487       .  S
C1512      C2242   1.487       .  S
O1513      V1521   1.913       .  S
O1513      C1523   1.270       .  A
O1514      V1521   1.912       .  S
O1514      C1524   1.270       .  A
O1515      V1521   1.874       .  S
O1515      C1525   1.256       .  A
O1516      V1521   1.876       .  S
O1516      C1526   1.256       .  A
O1517      V1522   1.920       .  S
O1517      C1526   1.270       .  A
O1518      V1522   1.916       .  S
O1518      C1525   1.269       .  A
O1519      V1522   1.882       .  S
O1519      C1524   1.258       .  A
O1520      V1522   1.886       .  S
O1520      C1523   1.260       .  A
V1521      V1522   2.086       .  T
C1523      C2217   1.490       .  S
C1524      C2259   1.476       .  S
C1525      C2228   1.466       .  S
C1526      C2200   1.470       .  S
O1527      V1535   1.916       .  S
O1527      C1537   1.271       .  A
O1528      V1535   1.917       .  S
O1528      C1538   1.271       .  A
O1529      V1535   1.869       .  S
O1529      C1539   1.255       .  A
O1530      V1535   1.875       .  S
O1530      C1540   1.256       .  A
O1531      V1536   1.918       .  S
O1531      C1540   1.270       .  A
O1532      V1536   1.921       .  S
O1532      C1539   1.271       .  A
O1533      V1536   1.872       .  S
O1533      C1538   1.258       .  A
O1534      V1536   1.881       .  S
O1534      C1537   1.258       .  A
V1535      V1536   2.086       .  T
C1537      C2287   1.479       .  S
C1538      C2189   1.482       .  S
C1539      C2172   1.472       .  S
C1540      C2231   1.468       .  S
O1541      C1551   1.271       .  A
O1542      V1549   1.922   1_455  S
O1542      C1552   1.273   1_565  A
O1543      C1553   1.257       .  A
O1544      V1549   1.872       .  S
O1545      V1550   1.919       .  S
O1545      C1554   1.271       .  A
O1546      V1550   1.916       .  S
O1546      C1553   1.271       .  A
O1547      V1550   1.874   1_455  S
O1548      V1550   1.876       .  S
O1548      C1551   1.258       .  A
C1551      C2214   1.487       .  S
C1552      C2326   1.486   1_545  S
C1553      C2158   1.485       .  S
O1555      V1563   1.915   1_455  S
O1555      C1565   1.271       .  A
O1556      V1563   1.913       .  S
O1556      C1566   1.270       .  A
O1557      V1563   1.868       .  S
O1557      C1567   1.255       .  A
O1558      V1563   1.866       .  S
O1558      C1568   1.256       .  A
O1559      V1564   1.921       .  S
O1559      C1568   1.272       .  A
O1560      V1564   1.922       .  S
O1560      C1567   1.273       .  A
O1561      V1564   1.877       .  S
O1561      C1566   1.257       .  A
V1563      V1564   2.083       .  T
C1566      C2186   1.477       .  S
C1567      C2130   1.484       .  S
C1568      C2161   1.485       .  S
O1569      V1577   1.920       .  S
O1569      C1579   1.272       .  A
O1570      V1577   1.921       .  S
O1570      C1580   1.272       .  A
O1571      V1577   1.870       .  S
O1571      C1581   1.256       .  A
O1572      V1577   1.872       .  S
O1572      C1582   1.256       .  A
O1573      V1578   1.924       .  S
O1573      C1582   1.272       .  A
O1574      V1578   1.924       .  S
O1574      C1581   1.272       .  A
O1575      V1578   1.866       .  S
O1575      C1580   1.256       .  A
O1576      V1578   1.876       .  S
O1576      C1579   1.258       .  A
V1577      V1578   2.084       .  T
C1579      C2102   1.488       .  S
C1580      C2088   1.478       .  S
C1581      C2116   1.484       .  S
C1582      C2203   1.479       .  S
O1583      V1591   1.915       .  S
O1583      C1593   1.270       .  A
O1584      V1591   1.913       .  S
O1584      C1594   1.270       .  A
O1585      V1591   1.879       .  S
O1585      C1595   1.258       .  A
O1586      V1591   1.878       .  S
O1586      C1596   1.258       .  A
O1587      V1592   1.915       .  S
O1587      C1596   1.271       .  A
O1588      V1592   1.918       .  S
O1588      C1595   1.270       .  A
O1589      V1592   1.878       .  S
O1589      C1594   1.258       .  A
O1590      V1592   1.879       .  S
O1590      C1593   1.259       .  A
V1591      V1592   2.084       .  T
C1593      C2074   1.488       .  S
C1594      C2060   1.486       .  S
C1595      C2595   1.475       .  S
C1596      C2119   1.483       .  S
O1597      V1605   1.926   1_455  S
O1597      C1607   1.274       .  A
O1598      V1605   1.925       .  S
O1598      C1608   1.272       .  A
O1599      V1605   1.874       .  S
O1599      C1609   1.256       .  A
O1600      V1605   1.869       .  S
O1600      C1610   1.257       .  A
O1601      V1606   1.914       .  S
O1601      C1610   1.270       .  A
O1602      V1606   1.914       .  S
O1602      C1609   1.271       .  A
O1603      V1606   1.865       .  S
O1603      C1608   1.256       .  A
O1604      V1606   1.875   1_455  S
O1604      C1607   1.255       .  A
V1605      V1606   2.082       .  T
C1607      C2032   1.495       .  S
C1608      C2063   1.483       .  S
C1609      C2525   1.482       .  S
C1610      C2046   1.482       .  S
O1611      V1619   1.919       .  S
O1611      C1621   1.271       .  A
O1612      V1619   1.915   1_455  S
O1612      C1622   1.271       .  A
O1613      V1619   1.870       .  S
O1613      C1623   1.257       .  A
O1614      V1619   1.873       .  S
O1614      C1624   1.257       .  A
O1615      V1620   1.918       .  S
O1615      C1624   1.270       .  A
O1616      V1620   1.915       .  S
O1616      C1623   1.270       .  A
O1617      V1620   1.875   1_455  S
O1617      C1622   1.257       .  A
O1618      V1620   1.876       .  S
O1618      C1621   1.258       .  A
V1619      V1620   2.083       .  T
C1621      C2105   1.490       .  S
C1622      C2018   1.483       .  S
C1623      C2049   1.483       .  S
C1624      C2147   1.478       .  S
O1625      V1633   1.917       .  S
O1625      C1635   1.271       .  A
O1626      V1633   1.918       .  S
O1626      C1636   1.270       .  A
O1627      V1633   1.875       .  S
O1627      C1637   1.258       .  A
O1628      V1633   1.867       .  S
O1628      C1638   1.256       .  A
O1629      V1634   1.913       .  S
O1629      C1638   1.269       .  A
O1630      V1634   1.915       .  S
O1630      C1637   1.271       .  A
O1631      V1634   1.874       .  S
O1631      C1636   1.257       .  A
O1632      V1634   1.882       .  S
O1632      C1635   1.258       .  A
V1633      V1634   2.086       .  T
C1635      C2035   1.483       .  S
C1636      C1990   1.471       .  S
C1637      C2410   1.488       .  S
C1638      C2007   1.469       .  S
O1639      C1649   1.270       .  A
O1640      V1647   1.921       .  S
O1640      C1650   1.272       .  A
O1641      C1651   1.256       .  A
O1642      V1647   1.869       .  S
O1642      C1652   1.254       .  A
O1643      V1648   1.914       .  S
O1644      V1648   1.910       .  S
O1644      C1651   1.269       .  A
O1645      V1648   1.870       .  S
O1646      V1648   1.875       .  S
O1646      C1649   1.258       .  A
C1649      C1979   1.486       .  S
C1650      C2021   1.484       .  S
C1651      C2004   1.467       .  S
C1652      C2315   1.484       .  S
O1653      V1661   1.915       .  S
O1653      C1663   1.270       .  A
O1654      V1661   1.915       .  S
O1654      C1664   1.270       .  A
O1655      V1661   1.868       .  S
O1655      C1665   1.255       .  A
O1656      V1661   1.869       .  S
O1656      C1666   1.257       .  A
O1657      V1662   1.924       .  S
O1657      C1666   1.272       .  A
O1658      V1662   1.920       .  S
O1658      C1665   1.271       .  A
O1659      V1662   1.873       .  S
O1659      C1664   1.256       .  A
O1660      V1662   1.875       .  S
O1660      C1663   1.258       .  A
V1661      V1662   2.085       .  T
C1663      C1976   1.482       .  S
C1664      C2091   1.473       .  S
C1665      C1962   1.472       .  S
C1666      C2245   1.486       .  S
O1667      V1675   1.917       .  S
O1667      C1677   1.271       .  A
O1668      V1675   1.918       .  S
O1668      C1678   1.271       .  A
O1669      V1675   1.867       .  S
O1669      C1679   1.255       .  A
O1670      V1675   1.868       .  S
O1670      C1680   1.255       .  A
O1671      V1676   1.918       .  S
O1671      C1680   1.271       .  A
O1672      V1676   1.916       .  S
O1672      C1679   1.270       .  A
O1673      V1676   1.874       .  S
O1673      C1678   1.256       .  A
O1674      V1676   1.877       .  S
O1674      C1677   1.259       .  A
V1675      V1676   2.086       .  T
C1677      C2077   1.488       .  S
C1678      C1993   1.478       .  S
C1679      C2455   1.470       .  S
C1680      C1965   1.472       .  S
O1681      V1689   1.917       .  S
O1681      C1691   1.271       .  A
O1682      V1689   1.918       .  S
O1682      C1692   1.271       .  A
O1683      V1689   1.868       .  S
O1683      C1693   1.256       .  A
O1684      V1689   1.864       .  S
O1684      C1694   1.254       .  A
O1685      V1690   1.917       .  S
O1685      C1694   1.271       .  A
O1686      V1690   1.917       .  S
O1686      C1693   1.271       .  A
O1687      V1690   1.875       .  S
O1687      C1692   1.258       .  A
O1688      V1690   1.880       .  S
O1688      C1691   1.257       .  A
V1689      V1690   2.086       .  T
C1691      C1934   1.479       .  S
C1692      C1920   1.486       .  S
C1693      C2357   1.473       .  S
C1694      C1948   1.466       .  S
O1695      V1703   1.929       .  S
O1695      C1705   1.274       .  A
O1696      V1703   1.928       .  S
O1696      C1706   1.275       .  A
O1697      V1703   1.861       .  S
O1697      C1707   1.253       .  A
O1698      V1703   1.863       .  S
O1698      C1708   1.254       .  A
O1699      V1704   1.926       .  S
O1699      C1708   1.273       .  A
O1700      V1704   1.922       .  S
O1700      C1707   1.272       .  A
O1701      V1704   1.868       .  S
O1701      C1706   1.254       .  A
O1702      V1704   1.875       .  S
O1702      C1705   1.256       .  A
V1703      V1704   2.082       .  T
C1705      C1906   1.485       .  S
C1706      C1892   1.490       .  S
C1707      C1951   1.467       .  S
C1708      C2427   1.477       .  S
O1709      V1717   1.921       .  S
O1709      C1719   1.271       .  A
O1710      V1717   1.921       .  S
O1710      C1720   1.272       .  A
O1711      V1717   1.873       .  S
O1711      C1721   1.255       .  A
O1712      V1717   1.867       .  S
O1712      C1722   1.256       .  A
O1713      V1718   1.916       .  S
O1713      C1722   1.271       .  A
O1714      V1718   1.918       .  S
O1714      C1721   1.272       .  A
O1715      V1718   1.867       .  S
O1715      C1720   1.256       .  A
O1716      V1718   1.873       .  S
O1716      C1719   1.257       .  A
V1717      V1718   2.083       .  T
C1719      C1864   1.490       .  S
C1720      C1850   1.479       .  S
C1721      C2175   1.484       .  S
C1722      C1878   1.480       .  S
O1723      V1731   1.914       .  S
O1723      C1733   1.270       .  A
O1724      V1731   1.914       .  S
O1724      C1734   1.270       .  A
O1725      V1731   1.868       .  S
O1725      C1735   1.255       .  A
O1726      V1731   1.874       .  S
O1726      C1736   1.256       .  A
O1727      V1732   1.924       .  S
O1727      C1736   1.272       .  A
O1729      V1732   1.868       .  S
O1729      C1734   1.256       .  A
O1730      V1732   1.868       .  S
O1730      C1733   1.256       .  A
V1731      V1732   2.084       .  T
C1733      C2637   1.482       .  S
C1734      C1881   1.478       .  S
C1736      C1836   1.481       .  S
O1737      V1745   1.922       .  S
O1737      C1747   1.272       .  A
O1738      V1745   1.919       .  S
O1738      C1748   1.271       .  A
O1739      V1745   1.881       .  S
O1739      C1749   1.259       .  A
O1740      V1745   1.873       .  S
O1740      C1750   1.256       .  A
O1741      V1746   1.915       .  S
O1741      C1750   1.269       .  A
O1742      V1746   1.918       .  S
O1742      C1749   1.271       .  A
O1743      V1746   1.873       .  S
O1743      C1748   1.258       .  A
O1744      V1746   1.879       .  S
O1744      C1747   1.259       .  A
V1745      V1746   2.084       .  T
C1747      C1867   1.491       .  S
C1748      C1923   1.488       .  S
C1749      C2273   1.491       .  S
C1750      C1808   1.465       .  S
O1751      V1759   1.927   1_565  S
O1751      C1761   1.274       .  A
O1752      V1759   1.923       .  S
O1752      C1762   1.272   1_545  A
O1753      V1759   1.873       .  S
O1753      C1763   1.256   1_545  A
O1754      V1759   1.875       .  S
O1754      C1764   1.256   1_545  A
O1755      V1760   1.917       .  S
O1755      C1764   1.272       .  A
O1756      V1760   1.915       .  S
O1756      C1763   1.269       .  A
O1757      V1760   1.877       .  S
O1757      C1762   1.256       .  A
O1758      V1760   1.879       .  S
O1758      C1761   1.257       .  A
V1759      V1760   2.084   1_545  T
C1761      C1909   1.490       .  S
C1762      C1825   1.477   1_565  S
C1763      C1811   1.467       .  S
C1764      C2483   1.477   1_565  S
O1765      V1773   1.924   1_455  S
O1765      C1775   1.272       .  A
O1766      V1773   1.921       .  S
O1766      C1776   1.272       .  A
O1767      V1773   1.873       .  S
O1767      C1777   1.256       .  A
O1768      V1773   1.872       .  S
O1768      C1778   1.255       .  A
O1769      V1774   1.914       .  S
O1769      C1778   1.270       .  A
O1770      V1774   1.917       .  S
O1770      C1777   1.271       .  A
O1771      V1774   1.869       .  S
O1771      C1776   1.256       .  A
O1772      V1774   1.870   1_455  S
O1772      C1775   1.256       .  A
V1773      V1774   2.084       .  T
C1775      C1937   1.476       .  S
C1776      C1853   1.487       .  S
C1777      C2133   1.472       .  S
C1778      C1797   1.469       .  S
O1779      V1787   1.924       .  S
O1779      C1789   1.273       .  A
O1780      V1787   1.924   1_455  S
O1780      C1790   1.273       .  A
O1781      V1787   1.863       .  S
O1781      C1791   1.253       .  A
O1782      V1787   1.871       .  S
O1782      C1792   1.255       .  A
O1783      V1788   1.923       .  S
O1783      C1792   1.273       .  A
O1784      V1788   1.922       .  S
O1784      C1791   1.271       .  A
O1785      V1788   1.871   1_455  S
O1785      C1790   1.255       .  A
O1786      V1788   1.874       .  S
O1786      C1789   1.255       .  A
V1787      V1788   2.083       .  T
C1789      C1839   1.490       .  S
C1790      C1895   1.483       .  S
C1791      C1794   1.471       .  S
C1792      C2553   1.485       .  S
C1793      C1794   1.399   1_456  A
C1793      C1798   1.405       .  A
C1793      H1800   1.084   1_556  S
C1794      C1795   1.420   1_554  A
C1795      C1796   1.394       .  A
C1795      N1802   1.434   1_556  S
C1796      C1797   1.396       .  A
C1796      H1801   1.084       .  S
C1797      C1798   1.416   1_655  A
C1798      N1799   1.438       .  S
N1799      H1803   1.046       .  S
N1799      H1804   1.046       .  S
N1802      H1805   1.044       .  S
N1802      H1806   1.046       .  S
C1807      C1808   1.397       .  A
C1807      C1812   1.399       .  A
C1807      H1814   1.084   1_565  S
C1808      C1809   1.420       .  A
C1809      C1810   1.400       .  A
C1809      N1816   1.440       .  S
C1810      C1811   1.398   1_556  A
C1810      H1815   1.084   1_556  S
C1811      C1812   1.420   1_554  A
C1812      N1813   1.441   1_566  S
N1813      H1817   1.046   1_554  S
N1813      H1818   1.042       .  S
N1816      H1819   1.043       .  S
N1816      H1820   1.046       .  S
C1821      C1822   1.401   1_565  A
C1821      C1826   1.410       .  A
C1821      H1828   1.084       .  S
C1823      N1830   1.439       .  S
C1824      C1825   1.396       .  A
C1825      C1826   1.417   1_545  A
C1826      N1827   1.438       .  S
N1827      H1831   1.046       .  S
N1827      H1832   1.046       .  S
N1830      H1833   1.046       .  S
N1830      H1834   1.046       .  S
C1835      C1836   1.397       .  A
C1835      C1840   1.400       .  A
C1835      H1842   1.084       .  S
C1836      C1837   1.417       .  A
C1837      C1838   1.406       .  A
C1837      N1844   1.439       .  S
C1838      C1839   1.402       .  A
C1838      H1843   1.083       .  S
C1839      C1840   1.427       .  A
C1840      N1841   1.433       .  S
N1841      H1845   1.045       .  S
N1841      H1846   1.045       .  S
N1844      H1847   1.046       .  S
N1844      H1848   1.046       .  S
C1849      C1850   1.410       .  A
C1849      C1854   1.396       .  A
C1849      H1856   1.084       .  S
C1850      C1851   1.405       .  A
C1851      C1852   1.404       .  A
C1851      N1858   1.438       .  S
C1852      C1853   1.415       .  A
C1852      H1857   1.083       .  S
C1853      C1854   1.412       .  A
C1854      N1855   1.432       .  S
N1855      H1859   1.045       .  S
N1855      H1860   1.045       .  S
N1858      H1861   1.046       .  S
N1858      H1862   1.045       .  S
C1863      C1868   1.407       .  A
C1863      H1870   1.083       .  S
C1864      C1865   1.412       .  A
C1865      N1872   1.432       .  S
C1866      C1867   1.412   1_545  A
C1866      H1871   1.084       .  S
C1867      C1868   1.409       .  A
C1868      N1869   1.438       .  S
N1869      H1873   1.046       .  S
N1869      H1874   1.045       .  S
N1872      H1875   1.045       .  S
N1872      H1876   1.045       .  S
C1877      C1878   1.412       .  A
C1877      C1882   1.401       .  A
C1877      H1884   1.083       .  S
C1878      C1879   1.407       .  A
C1879      C1880   1.402       .  A
C1879      N1886   1.438       .  S
C1880      C1881   1.411   1_556  A
C1880      H1885   1.083   1_556  S
C1881      C1882   1.406   1_554  A
C1882      N1883   1.438   1_556  S
N1883      H1887   1.045   1_554  S
N1883      H1888   1.046       .  S
N1886      H1889   1.046       .  S
C1891      C1892   1.399       .  A
C1891      C1896   1.402       .  A
C1891      H1898   1.084       .  S
C1892      C1893   1.427       .  A
C1893      C1894   1.406       .  A
C1893      N1900   1.439       .  S
C1894      C1895   1.396       .  A
C1894      H1899   1.084       .  S
C1895      C1896   1.417       .  A
C1896      N1897   1.433       .  S
N1897      H1901   1.046       .  S
N1897      H1902   1.046       .  S
N1900      H1903   1.046       .  S
N1900      H1904   1.046       .  S
C1905      C1906   1.398       .  A
C1905      C1910   1.409       .  A
C1905      H1912   1.084       .  S
C1906      C1907   1.419       .  A
C1907      C1908   1.407       .  A
C1907      N1914   1.439       .  S
C1908      C1909   1.400       .  A
C1908      H1913   1.083       .  S
C1909      C1910   1.422       .  A
C1910      N1911   1.438       .  S
N1911      H1915   1.046       .  S
N1911      H1916   1.046       .  S
N1914      H1917   1.046       .  S
N1914      H1918   1.046       .  S
C1919      C1920   1.412       .  A
C1919      C1924   1.406       .  A
C1919      H1926   1.083       .  S
C1920      C1921   1.408       .  A
C1921      C1922   1.403       .  A
C1921      N1928   1.438       .  S
C1922      C1923   1.412       .  A
C1922      H1927   1.083       .  S
C1923      C1924   1.409       .  A
C1924      N1925   1.438       .  S
N1925      H1929   1.046       .  S
N1925      H1930   1.046       .  S
N1928      H1931   1.046       .  S
N1928      H1932   1.046   1_565  S
C1933      C1934   1.398       .  A
C1933      C1938   1.402       .  A
C1933      H1940   1.084       .  S
C1934      C1935   1.419       .  A
C1935      C1936   1.408       .  A
C1935      N1942   1.437       .  S
C1936      C1937   1.398       .  A
C1936      H1941   1.084       .  S
C1937      C1938   1.416       .  A
C1938      N1939   1.439       .  S
N1939      H1943   1.046       .  S
N1939      H1944   1.046       .  S
N1942      H1945   1.045       .  S
N1942      H1946   1.046       .  S
C1947      C1948   1.397       .  A
C1947      C1952   1.398       .  A
C1947      H1954   1.084       .  S
C1948      C1949   1.416       .  A
C1949      C1950   1.404       .  A
C1949      N1956   1.438       .  S
C1950      C1951   1.398   1_556  A
C1950      H1955   1.084   1_556  S
C1951      C1952   1.413   1_554  A
C1952      N1953   1.433   1_556  S
N1953      H1957   1.046   1_554  S
N1953      H1958   1.046       .  S
N1956      H1959   1.046       .  S
N1956      H1960   1.046       .  S
C1961      C1962   1.397       .  A
C1961      C1966   1.400       .  A
C1961      H1968   1.084       .  S
C1962      C1963   1.418       .  A
C1963      C1964   1.403       .  A
C1963      N1970   1.439       .  S
C1964      C1965   1.397       .  A
C1964      H1969   1.084       .  S
C1965      C1966   1.415       .  A
C1966      N1967   1.433       .  S
N1967      H1971   1.046       .  S
N1967      H1972   1.046       .  S
N1970      H1973   1.046       .  S
N1970      H1974   1.046       .  S
C1975      C1976   1.410       .  A
C1975      C1980   1.404       .  A
C1975      H1982   1.083       .  S
C1976      C1977   1.407       .  A
C1977      C1978   1.403       .  A
C1977      N1984   1.438       .  S
C1978      C1979   1.412       .  A
C1978      H1983   1.083       .  S
C1979      C1980   1.410       .  A
C1980      N1981   1.438       .  S
N1981      H1985   1.046       .  S
N1981      H1986   1.046       .  S
N1984      H1987   1.046       .  S
N1984      H1988   1.046       .  S
C1989      C1990   1.397       .  A
C1989      C1994   1.404       .  A
C1989      H1996   1.084       .  S
C1990      C1991   1.421       .  A
C1991      C1992   1.400       .  A
C1991      N1998   1.440       .  S
C1992      C1993   1.398       .  A
C1992      H1997   1.084       .  S
C1993      C1994   1.419       .  A
C1994      N1995   1.439       .  S
N1995      H1999   1.046       .  S
N1995      H2000   1.046       .  S
N1998      H2001   1.042       .  S
N1998      H2002   1.046       .  S
C2003      C2004   1.397       .  A
C2003      C2008   1.400       .  A
C2003      H2010   1.084       .  S
C2004      C2005   1.414       .  A
C2005      C2006   1.403       .  A
C2005      N2012   1.438       .  S
C2006      C2007   1.399       .  A
C2006      H2011   1.083       .  S
C2007      C2008   1.415       .  A
C2008      N2009   1.439       .  S
N2009      H2013   1.046       .  S
N2009      H2014   1.046       .  S
C2017      C2018   1.412       .  A
C2017      C2022   1.402       .  A
C2017      H2024   1.084       .  S
C2018      C2019   1.408   1_565  A
C2019      C2020   1.403       .  A
C2019      N2026   1.438       .  S
C2020      C2021   1.412   1_545  A
C2021      C2022   1.405       .  A
C2022      N2023   1.432       .  S
N2023      H2027   1.046       .  S
N2023      H2028   1.046       .  S
N2026      H2029   1.045       .  S
C2031      C2032   1.401       .  A
C2031      C2036   1.407       .  A
C2031      H2038   1.083       .  S
C2033      C2034   1.398       .  A
C2033      N2040   1.433       .  S
C2034      C2035   1.396       .  A
C2034      H2039   1.084       .  S
C2036      N2037   1.439       .  S
N2037      H2041   1.046       .  S
N2037      H2042   1.046       .  S
N2040      H2043   1.045       .  S
N2040      H2044   1.045       .  S
C2045      C2046   1.411       .  A
C2045      C2050   1.395       .  A
C2045      H2052   1.084       .  S
C2046      C2047   1.410       .  A
C2047      C2048   1.396       .  A
C2047      N2054   1.432   1_565  S
C2048      C2049   1.412       .  A
C2048      H2053   1.084   1_565  S
C2049      C2050   1.411       .  A
C2050      N2051   1.432       .  S
N2051      H2055   1.045       .  S
N2051      H2056   1.045   1_655  S
N2054      H2057   1.045       .  S
N2054      H2058   1.046       .  S
C2059      C2060   1.413       .  A
C2059      C2064   1.400       .  A
C2059      H2066   1.083       .  S
C2060      C2061   1.410       .  A
C2061      C2062   1.402       .  A
C2061      N2068   1.438       .  S
C2062      C2063   1.410       .  A
C2062      H2067   1.084       .  S
C2063      C2064   1.409       .  A
C2064      N2065   1.432       .  S
N2065      H2069   1.045       .  S
N2065      H2070   1.045       .  S
N2068      H2071   1.046       .  S
N2068      H2072   1.046       .  S
C2073      C2074   1.411       .  A
C2073      C2078   1.406       .  A
C2073      H2080   1.083       .  S
C2074      C2075   1.412       .  A
C2075      C2076   1.398       .  A
C2075      N2082   1.432       .  S
C2076      C2077   1.411       .  A
C2076      H2081   1.084       .  S
C2077      C2078   1.410       .  A
C2078      N2079   1.438       .  S
N2079      H2083   1.046       .  S
N2079      H2084   1.046       .  S
N2082      H2085   1.045       .  S
N2082      H2086   1.045       .  S
C2087      C2088   1.410       .  A
C2087      C2092   1.401       .  A
C2087      H2094   1.084       .  S
C2088      C2089   1.408       .  A
C2089      C2090   1.405       .  A
C2089      N2096   1.438       .  S
C2090      C2091   1.408       .  A
C2090      H2095   1.084       .  S
C2091      C2092   1.405       .  A
C2092      N2093   1.438       .  S
N2093      H2097   1.046       .  S
N2093      H2098   1.046       .  S
N2096      H2099   1.046       .  S
N2096      H2100   1.046       .  S
C2101      C2102   1.411       .  A
C2101      C2106   1.406       .  A
C2101      H2108   1.083       .  S
C2102      C2103   1.408       .  A
C2103      C2104   1.405       .  A
C2103      N2110   1.438       .  S
C2104      C2105   1.413       .  A
C2104      H2109   1.083       .  S
C2105      C2106   1.410       .  A
C2106      N2107   1.438       .  S
N2107      H2111   1.046       .  S
N2107      H2112   1.046       .  S
N2110      H2113   1.046       .  S
N2110      H2114   1.046       .  S
C2115      C2116   1.410       .  A
C2115      C2120   1.403       .  A
C2115      H2122   1.083       .  S
C2116      C2117   1.409       .  A
C2117      C2118   1.407       .  A
C2117      N2124   1.438       .  S
C2118      C2119   1.411       .  A
C2118      H2123   1.083       .  S
C2119      C2120   1.408       .  A
C2120      N2121   1.438       .  S
N2121      H2125   1.046       .  S
N2121      H2126   1.046       .  S
N2124      H2127   1.046       .  S
N2124      H2128   1.046       .  S
C2129      C2130   1.401       .  A
C2129      C2134   1.404       .  A
C2129      H2136   1.083       .  S
C2130      C2131   1.423       .  A
C2131      C2132   1.403       .  A
C2131      N2138   1.439   1_655  S
C2132      C2133   1.395       .  A
C2132      H2137   1.084   1_655  S
C2133      C2134   1.415       .  A
C2134      N2135   1.439       .  S
N2135      H2139   1.046       .  S
N2135      H2140   1.046       .  S
N2138      H2141   1.046       .  S
N2138      H2142   1.046       .  S
C2143      C2144   1.413       .  A
C2143      C2148   1.396       .  A
C2143      H2150   1.083       .  S
C2144      C2145   1.411   1_565  A
C2145      C2146   1.406       .  A
C2146      C2147   1.409   1_545  A
C2146      H2151   1.084   1_655  S
C2147      C2148   1.407       .  A
C2148      N2149   1.433       .  S
N2149      H2153   1.045       .  S
N2149      H2154   1.046       .  S
N2152      H2155   1.046   1_455  S
N2152      H2156   1.045       .  S
C2157      C2158   1.413       .  A
C2157      C2162   1.404       .  A
C2157      H2164   1.083       .  S
C2158      C2159   1.408       .  A
C2159      C2160   1.402       .  A
C2159      N2166   1.438       .  S
C2160      C2161   1.412       .  A
C2160      H2165   1.083       .  S
C2161      C2162   1.408       .  A
C2162      N2163   1.438       .  S
N2163      H2167   1.046       .  S
N2163      H2168   1.046       .  S
C2171      C2172   1.396       .  A
C2171      C2176   1.399       .  A
C2171      H2178   1.084       .  S
C2172      C2173   1.418       .  A
C2173      C2174   1.396       .  A
C2173      N2180   1.434       .  S
C2174      C2175   1.400       .  A
C2174      H2179   1.084       .  S
C2175      C2176   1.426       .  A
C2176      N2177   1.433       .  S
N2177      H2181   1.045       .  S
N2177      H2182   1.045       .  S
N2180      H2183   1.046       .  S
N2180      H2184   1.044       .  S
C2185      C2186   1.409       .  A
C2185      C2190   1.405       .  A
C2185      H2192   1.084       .  S
C2186      C2187   1.406       .  A
C2187      C2188   1.402       .  A
C2187      N2194   1.438       .  S
C2188      C2189   1.411       .  A
C2188      H2193   1.083       .  S
C2189      C2190   1.409       .  A
C2190      N2191   1.438       .  S
N2191      H2195   1.046       .  S
N2191      H2196   1.046       .  S
N2194      H2197   1.046       .  S
N2194      H2198   1.046       .  S
C2199      C2200   1.396       .  A
C2199      C2204   1.404       .  A
C2199      H2206   1.084       .  S
C2200      C2201   1.416       .  A
C2201      C2202   1.401       .  A
C2201      N2208   1.433       .  S
C2202      C2203   1.401       .  A
C2202      H2207   1.084       .  S
C2203      C2204   1.418       .  A
C2204      N2205   1.439       .  S
N2205      H2209   1.046       .  S
N2205      H2210   1.046       .  S
N2208      H2211   1.044       .  S
N2208      H2212   1.046       .  S
C2213      C2214   1.409       .  A
C2213      C2218   1.404       .  A
C2213      H2220   1.083       .  S
C2214      C2215   1.408       .  A
C2215      C2216   1.408       .  A
C2215      N2222   1.438       .  S
C2216      C2217   1.412       .  A
C2216      H2221   1.083       .  S
C2217      C2218   1.411       .  A
C2218      N2219   1.438       .  S
N2219      H2223   1.046       .  S
N2219      H2224   1.046       .  S
N2222      H2225   1.046       .  S
N2222      H2226   1.046       .  S
C2227      C2228   1.399       .  A
C2227      C2232   1.400       .  A
C2227      H2234   1.084       .  S
C2228      C2229   1.417       .  A
C2229      C2230   1.401       .  A
C2229      N2236   1.440       .  S
C2230      C2231   1.401       .  A
C2230      H2235   1.084       .  S
C2231      C2232   1.418       .  A
C2232      N2233   1.440       .  S
N2233      H2237   1.046       .  S
N2233      H2238   1.043       .  S
N2236      H2239   1.044       .  S
N2236      H2240   1.046       .  S
C2241      C2242   1.413       .  A
C2241      C2246   1.401       .  A
C2241      H2248   1.084       .  S
C2242      C2243   1.411       .  A
C2243      C2244   1.396       .  A
C2243      N2250   1.432       .  S
C2244      C2245   1.411       .  A
C2244      H2249   1.084       .  S
C2245      C2246   1.411       .  A
C2246      N2247   1.432       .  S
N2247      H2251   1.044       .  S
N2247      H2252   1.046       .  S
N2250      H2253   1.045       .  S
N2250      H2254   1.045       .  S
C2255      C2256   1.402       .  A
C2255      C2260   1.408       .  A
C2255      H2262   1.083       .  S
C2256      C2257   1.421       .  A
C2257      C2258   1.402       .  A
C2257      N2264   1.439       .  S
C2258      C2259   1.396       .  A
C2258      H2263   1.084       .  S
C2259      C2260   1.415       .  A
C2260      N2261   1.438       .  S
N2261      H2265   1.046       .  S
N2261      H2266   1.045       .  S
N2264      H2267   1.046       .  S
N2264      H2268   1.046       .  S
C2269      C2270   1.409       .  A
C2269      C2274   1.406       .  A
C2269      H2276   1.084       .  S
C2270      C2271   1.410       .  A
C2271      C2272   1.401       .  A
C2271      N2278   1.432       .  S
C2272      C2273   1.413       .  A
C2272      H2277   1.083       .  S
C2273      C2274   1.411       .  A
C2274      N2275   1.438       .  S
N2275      H2279   1.046       .  S
N2275      H2280   1.046   1_565  S
N2278      H2281   1.046       .  S
N2278      H2282   1.045       .  S
C2283      C2284   1.402       .  A
C2283      C2288   1.409       .  A
C2283      H2290   1.084       .  S
C2284      C2285   1.415       .  A
C2285      C2286   1.400       .  A
C2285      N2292   1.433       .  S
C2286      C2287   1.398       .  A
C2286      H2291   1.084       .  S
C2287      C2288   1.418       .  A
C2288      N2289   1.438       .  S
N2289      H2293   1.046       .  S
N2289      H2294   1.046       .  S
N2292      H2295   1.046       .  S
N2292      H2296   1.046       .  S
C2297      C2298   1.412       .  A
C2297      C2302   1.404       .  A
C2297      H2304   1.083       .  S
C2298      C2299   1.409       .  A
C2299      C2300   1.407       .  A
C2299      N2306   1.438       .  S
C2300      C2301   1.412       .  A
C2300      H2305   1.083       .  S
C2301      C2302   1.409       .  A
C2302      N2303   1.438       .  S
N2303      H2307   1.046       .  S
N2303      H2308   1.046       .  S
N2306      H2309   1.046       .  S
N2306      H2310   1.046       .  S
C2311      C2312   1.396       .  A
C2311      C2316   1.396       .  A
C2311      H2318   1.084       .  S
C2312      C2313   1.415   1_565  A
C2313      C2314   1.400       .  A
C2313      N2320   1.433       .  S
C2314      C2315   1.400   1_545  A
C2314      H2319   1.084       .  S
C2315      C2316   1.427       .  A
C2316      N2317   1.433       .  S
N2317      H2321   1.045       .  S
N2317      H2322   1.045       .  S
N2320      H2323   1.046       .  S
N2320      H2324   1.046       .  S
C2325      C2326   1.399       .  A
C2325      C2330   1.404       .  A
C2325      H2332   1.083       .  S
C2327      N2334   1.433       .  S
C2328      C2329   1.397   1_545  A
C2329      C2330   1.418       .  A
C2330      N2331   1.438       .  S
N2331      H2335   1.046       .  S
N2331      H2336   1.045       .  S
N2334      H2337   1.046       .  S
N2334      H2338   1.046       .  S
C2339      C2340   1.411       .  A
C2339      C2344   1.407       .  A
C2339      H2346   1.083       .  S
C2340      C2341   1.407       .  A
C2341      C2342   1.406       .  A
C2341      N2348   1.438       .  S
C2342      C2343   1.413       .  A
C2342      H2347   1.083       .  S
C2343      C2344   1.410       .  A
C2344      N2345   1.438       .  S
N2345      H2349   1.046       .  S
N2345      H2350   1.046       .  S
N2348      H2351   1.046       .  S
N2348      H2352   1.046       .  S
C2353      C2354   1.413       .  A
C2353      C2358   1.401       .  A
C2353      H2360   1.083       .  S
C2354      C2355   1.410       .  A
C2355      C2356   1.403       .  A
C2355      N2362   1.438       .  S
C2356      C2357   1.408       .  A
C2356      H2361   1.084       .  S
C2357      C2358   1.403       .  A
C2358      N2359   1.437       .  S
N2359      H2363   1.046       .  S
N2359      H2364   1.045       .  S
N2362      H2365   1.046       .  S
N2362      H2366   1.045       .  S
C2367      C2368   1.397       .  A
C2367      C2372   1.403       .  A
C2367      H2374   1.084       .  S
C2368      C2369   1.416       .  A
C2369      C2370   1.403       .  A
C2369      N2376   1.438       .  S
C2370      C2371   1.400       .  A
C2370      H2375   1.083       .  S
C2371      C2372   1.419       .  A
C2372      N2373   1.433       .  S
N2373      H2377   1.046       .  S
N2373      H2378   1.046       .  S
N2376      H2379   1.046       .  S
N2376      H2380   1.045       .  S
C2381      C2382   1.411   1_545  A
C2381      H2388   1.083       .  S
C2382      C2383   1.409       .  A
C2383      C2384   1.406       .  A
C2383      N2390   1.438       .  S
C2384      C2385   1.413   1_565  A
C2384      H2389   1.083       .  S
C2386      N2387   1.438       .  S
N2387      H2391   1.046       .  S
N2387      H2392   1.046       .  S
N2390      H2393   1.045       .  S
N2390      H2394   1.046       .  S
C2395      C2396   1.411       .  A
C2395      C2400   1.395       .  A
C2395      H2402   1.084       .  S
C2396      C2397   1.412       .  A
C2397      C2398   1.395       .  A
C2397      N2404   1.432   1_565  S
C2398      C2399   1.411       .  A
C2398      H2403   1.084       .  S
C2399      C2400   1.412       .  A
C2400      N2401   1.432       .  S
N2401      H2405   1.045       .  S
N2401      H2406   1.045       .  S
N2404      H2407   1.045       .  S
N2404      H2408   1.045       .  S
C2409      C2410   1.416       .  A
C2409      C2414   1.407       .  A
C2409      H2416   1.083       .  S
C2410      C2411   1.413       .  A
C2411      C2412   1.394       .  A
C2411      N2418   1.432       .  S
C2412      C2413   1.407       .  A
C2412      H2417   1.084       .  S
C2413      C2414   1.403       .  A
C2414      N2415   1.438       .  S
N2415      H2419   1.045       .  S
N2415      H2420   1.046       .  S
N2418      H2421   1.045       .  S
N2418      H2422   1.045       .  S
C2423      C2424   1.415       .  A
C2423      C2428   1.398       .  A
C2423      H2430   1.083       .  S
C2424      C2425   1.412       .  A
C2425      C2426   1.397       .  A
C2425      N2432   1.432       .  S
C2426      C2427   1.410       .  A
C2426      H2431   1.084       .  S
C2427      C2428   1.406       .  A
C2428      N2429   1.432       .  S
N2429      H2433   1.045       .  S
N2429      H2434   1.046       .  S
N2432      H2435   1.045       .  S
N2432      H2436   1.046       .  S
C2437      C2438   1.396       .  A
C2437      C2442   1.402       .  A
C2437      H2444   1.084       .  S
C2438      C2439   1.419       .  A
C2439      C2440   1.403       .  A
C2439      N2446   1.439       .  S
C2440      C2441   1.396       .  A
C2440      H2445   1.084       .  S
C2441      C2442   1.419       .  A
C2442      N2443   1.439       .  S
N2443      H2447   1.046       .  S
N2443      H2448   1.046       .  S
N2446      H2449   1.046       .  S
N2446      H2450   1.046       .  S
C2451      C2452   1.411       .  A
C2451      C2456   1.398       .  A
C2451      H2458   1.084       .  S
C2452      C2453   1.407       .  A
C2453      C2454   1.402       .  A
C2453      N2460   1.438       .  S
C2454      C2455   1.408       .  A
C2454      H2459   1.084       .  S
C2455      C2456   1.413       .  A
C2456      N2457   1.440       .  S
N2457      H2461   1.046       .  S
N2457      H2462   1.040       .  S
N2460      H2463   1.046       .  S
N2460      H2464   1.046       .  S
C2465      C2466   1.398       .  A
C2465      C2470   1.406       .  A
C2465      H2472   1.084       .  S
C2466      C2467   1.418       .  A
C2467      C2468   1.404       .  A
C2467      N2474   1.439       .  S
C2468      C2469   1.400       .  A
C2468      H2473   1.084       .  S
C2469      C2470   1.422       .  A
C2470      N2471   1.438       .  S
N2471      H2475   1.046       .  S
N2471      H2476   1.046       .  S
N2474      H2477   1.046       .  S
N2474      H2478   1.046       .  S
C2479      C2480   1.401       .  A
C2479      C2484   1.408       .  A
C2479      H2486   1.083       .  S
C2480      C2481   1.422   1_545  A
C2481      C2482   1.397       .  A
C2481      N2488   1.433       .  S
C2482      C2483   1.393   1_565  A
C2482      H2487   1.084       .  S
C2483      C2484   1.419       .  A
C2484      N2485   1.438       .  S
N2485      H2489   1.046       .  S
N2485      H2490   1.046       .  S
N2488      H2491   1.046       .  S
N2488      H2492   1.046       .  S
C2493      C2494   1.397       .  A
C2493      C2498   1.407       .  A
C2493      H2500   1.084       .  S
C2494      C2495   1.415       .  A
C2495      C2496   1.406       .  A
C2495      N2502   1.438       .  S
C2496      C2497   1.400       .  A
C2496      H2501   1.084       .  S
C2497      C2498   1.422       .  A
C2498      N2499   1.439       .  S
N2499      H2503   1.046       .  S
N2499      H2504   1.046       .  S
N2502      H2505   1.046       .  S
N2502      H2506   1.046       .  S
C2507      C2508   1.411       .  A
C2507      C2512   1.400       .  A
C2507      H2514   1.083       .  S
C2508      C2509   1.406       .  A
C2509      C2510   1.401       .  A
C2509      N2516   1.438       .  S
C2510      C2511   1.412       .  A
C2510      H2515   1.083       .  S
C2511      C2512   1.406       .  A
C2512      N2513   1.438       .  S
N2513      H2517   1.046       .  S
N2513      H2518   1.045       .  S
N2516      H2519   1.046       .  S
N2516      H2520   1.046       .  S
C2521      C2522   1.399       .  A
C2521      C2526   1.406       .  A
C2521      H2528   1.084       .  S
C2522      C2523   1.425       .  A
C2523      C2524   1.392       .  A
C2523      N2530   1.434       .  S
C2524      C2525   1.396       .  A
C2524      H2529   1.084       .  S
C2525      C2526   1.422       .  A
C2526      N2527   1.438       .  S
N2527      H2531   1.046       .  S
N2527      H2532   1.046       .  S
N2530      H2533   1.046       .  S
N2530      H2534   1.044       .  S
C2535      C2536   1.413       .  A
C2535      C2540   1.405       .  A
C2535      H2542   1.083       .  S
C2536      C2537   1.410       .  A
C2537      C2538   1.410       .  A
C2537      N2544   1.438       .  S
C2538      C2539   1.413       .  A
C2538      H2543   1.083       .  S
C2539      C2540   1.409       .  A
C2540      N2541   1.438       .  S
N2541      H2545   1.046       .  S
N2541      H2546   1.046       .  S
N2544      H2547   1.046       .  S
N2544      H2548   1.046       .  S
C2549      C2550   1.396       .  A
C2549      C2554   1.405       .  A
C2549      H2556   1.084       .  S
C2550      C2551   1.421   1_655  A
C2551      C2552   1.401       .  A
C2551      N2558   1.440       .  S
C2552      C2553   1.400   1_455  A
C2552      H2557   1.084       .  S
C2553      C2554   1.423       .  A
C2554      N2555   1.439       .  S
N2555      H2559   1.046       .  S
N2555      H2560   1.046       .  S
N2558      H2561   1.043       .  S
N2558      H2562   1.046       .  S
C2563      C2564   1.397       .  A
C2563      C2568   1.399       .  A
C2563      H2570   1.084       .  S
C2564      C2565   1.422       .  A
C2565      C2566   1.402       .  A
C2565      N2572   1.432       .  S
C2566      C2567   1.399       .  A
C2566      H2571   1.084       .  S
C2567      C2568   1.418       .  A
C2568      N2569   1.434       .  S
N2569      H2573   1.046       .  S
N2569      H2574   1.046       .  S
N2572      H2575   1.045       .  S
N2572      H2576   1.044       .  S
C2577      C2578   1.411       .  A
C2577      C2582   1.403       .  A
C2577      H2584   1.083       .  S
C2578      C2579   1.407       .  A
C2579      C2580   1.402       .  A
C2579      N2586   1.438   1_655  S
C2580      C2581   1.411       .  A
C2580      H2585   1.083   1_655  S
C2581      C2582   1.406       .  A
C2582      N2583   1.438       .  S
N2583      H2587   1.046       .  S
N2583      H2588   1.046       .  S
N2586      H2589   1.045       .  S
N2586      H2590   1.046       .  S
C2591      C2592   1.401       .  A
C2591      C2596   1.403       .  A
C2591      H2598   1.084       .  S
C2592      C2593   1.418       .  A
C2593      C2594   1.402       .  A
C2593      N2600   1.433       .  S
C2594      C2595   1.398       .  A
C2594      H2599   1.084       .  S
C2595      C2596   1.421       .  A
C2596      N2597   1.440       .  S
N2597      H2601   1.046       .  S
N2597      H2602   1.043       .  S
N2600      H2603   1.046       .  S
N2600      H2604   1.046       .  S
C2605      C2606   1.396       .  A
C2605      C2610   1.403       .  A
C2605      H2612   1.084       .  S
C2606      C2607   1.417       .  A
C2607      C2608   1.404       .  A
C2607      N2614   1.438       .  S
C2608      C2609   1.398       .  A
C2608      H2613   1.084       .  S
C2609      C2610   1.419       .  A
C2610      N2611   1.433       .  S
N2611      H2615   1.046       .  S
N2611      H2616   1.046       .  S
N2614      H2617   1.045       .  S
N2614      H2618   1.046       .  S
C2619      C2620   1.411       .  A
C2619      C2624   1.405       .  A
C2619      H2626   1.083       .  S
C2621      N2628   1.438       .  S
C2622      C2623   1.413       .  A
C2622      H2627   1.083       .  S
C2623      C2624   1.410       .  A
C2624      N2625   1.438       .  S
N2625      H2629   1.046       .  S
N2625      H2630   1.046       .  S
N2628      H2631   1.045       .  S
N2628      H2632   1.046       .  S
C2633      C2634   1.406       .  A
C2633      C2638   1.394       .  A
C2633      H2640   1.084       .  S
C2634      C2635   1.403       .  A
C2635      C2636   1.403       .  A
C2636      C2637   1.414       .  A
C2636      H2641   1.083       .  S
C2637      C2638   1.412       .  A
C2638      N2639   1.432       .  S
N2639      H2643   1.045       .  S
N2639      H2644   1.045       .  S
N2642      H2645   1.046       .  S
N2642      H2646   1.045       .  S
C2647      C2648   1.403       .  A
C2647      C2652   1.408       .  A
C2647      H2654   1.084       .  S
C2649      C2650   1.397       .  A
C2649      N2656   1.433       .  S
C2650      H2655   1.084       .  S
C2651      C2652   1.416       .  A
C2652      N2653   1.439       .  S
N2653      H2657   1.046       .  S
N2653      H2658   1.046       .  S
N2656      H2659   1.045       .  S
N2656      H2660   1.046       .  S
C2661      C2662   1.412       .  A
C2661      C2666   1.399       .  A
C2661      H2668   1.083       .  S
C2662      C2663   1.414       .  A
C2663      C2664   1.402       .  A
C2663      N2670   1.432   1_565  S
C2664      C2665   1.412       .  A
C2664      H2669   1.084       .  S
C2665      C2666   1.413       .  A
C2666      N2667   1.432       .  S
N2667      H2671   1.045       .  S
N2667      H2672   1.045       .  S
N2670      H2674   1.045       .  S
C2675      C2680   1.403       .  A
C2675      H2682   1.083       .  S
C2676      C2677   1.405       .  A
C2677      C2678   1.399       .  A
C2677      N2684   1.433       .  S
C2678      C2679   1.410       .  A
C2678      H2683   1.084       .  S
C2680      N2681   1.438       .  S
N2681      H2685   1.046       .  S
N2681      H2686   1.045       .  S
N2684      H2687   1.046       .  S
N2684      H2688   1.046       .  S
