geometry optimzed in LAMMPS
_audit_creation_date              2020-12-01 
_audit_creation_method            'lammps2cif' 
_symmetry_space_group_name_H-M    'P1' 
_symmetry_Int_Tables_number       1 
_symmetry_cell_setting            triclinic 
loop_ 
_symmetry_equiv_pos_as_xyz 
  x,y,z 
_cell_length_a                    43.40768313 
_cell_length_b                    35.72322853232986 
_cell_length_c                    41.68803018285631 
_cell_angle_alpha                 89.98265274227572 
_cell_angle_beta                  89.76660688092183 
_cell_angle_gamma                 89.643005197516 
loop_ 
_atom_site_label 
_atom_site_type_symbol 
_atom_site_fract_x 
_atom_site_fract_y 
_atom_site_fract_z 
_atom_site_charge 
Fe1        Fe  0.37964819  0.86814092  0.33344843     1.65800
Fe2        Fe  0.33106542  0.85797202  0.27223823     1.73200
Fe3        Fe  0.37903331  0.78824500  0.29107320     1.54400
O4          O  0.42423477  0.80078533  0.30519852    -0.82300
O5          O  0.30367954  0.81574493  0.28672238    -0.80600
O6          O  0.42403216  0.86131367  0.31744744    -0.84800
O7          O  0.38381635  0.82107163  0.36432769    -0.79700
O8          O  0.39077431  0.80313446  0.24562677    -0.81400
O9          O  0.31036193  0.89007546  0.30858455    -0.84200
C10         C  0.37509686  0.78686357  0.36250565     0.96600
C11         C  0.43842078  0.83106801  0.31160072     1.04000
O12         O  0.36367973  0.83834198  0.29896586    -1.13200
O13         O  0.35789655  0.90122718  0.25775593    -0.75600
O14         O  0.37728223  0.91801084  0.30511118    -0.79100
O15         O  0.36771529  0.77169333  0.33622739    -0.79800
C16         C  0.37156713  0.92471827  0.27534788     0.95500
O17         O  0.33613718  0.87542219  0.35239947    -0.77700
O18         O  0.34560708  0.82687288  0.23180027    -0.82900
C19         C  0.30856181  0.78257939  0.27781948     0.98100
C20         C  0.37001349  0.80835736  0.22492442     1.04000
O21         O  0.33575593  0.76901931  0.27519419    -0.78600
C22         C  0.31158355  0.88633397  0.33894220     1.02300
Fe23       Fe  0.63054123  0.87143396  0.33395592     1.65800
Fe24       Fe  0.67856954  0.86098165  0.27134107     1.73200
Fe25       Fe  0.63332130  0.79050104  0.29322462     1.54400
O26         O  0.64597699  0.77592419  0.33827448    -0.82300
O27         O  0.66391099  0.82822087  0.23169634    -0.80600
O28         O  0.62838763  0.82526683  0.36569491    -0.84800
O29         O  0.58597049  0.86272910  0.31910478    -0.79700
O30         O  0.67659308  0.77194622  0.27669660    -0.81400
O31         O  0.65012815  0.90360030  0.25755260    -0.84200
C32         C  0.57283785  0.83179351  0.31323262     0.96600
C33         C  0.63799649  0.79128678  0.36437789     1.04000
O34         O  0.64712106  0.84123782  0.29956143    -1.13200
O35         O  0.69936422  0.89389640  0.30689975    -0.75600
O36         O  0.67406575  0.88036008  0.35151005    -0.79100
O37         O  0.58821747  0.80192093  0.30802771    -0.79800
C38         C  0.69839430  0.89086382  0.33738129     0.95500
O39         O  0.63103829  0.92072193  0.30518464    -0.77700
O40         O  0.70783787  0.81982452  0.28502581    -0.82900
C41         C  0.64015917  0.80810386  0.22634110     0.98100
C42         C  0.70347846  0.78610184  0.27763908     1.04000
O43         O  0.62017909  0.80342033  0.24792827    -0.78600
C44         C  0.63620765  0.92713336  0.27529714     1.02300
Fe45       Fe  0.63045531  0.63023784  0.08547357     1.65800
Fe46       Fe  0.67686062  0.63907136  0.02165895     1.73200
Fe47       Fe  0.63167193  0.71074847  0.04336429     1.54400
O48         O  0.58635050  0.69879272  0.05726275    -0.82300
O49         O  0.70659018  0.67985776  0.03426328    -0.80600
O50         O  0.58569825  0.63851367  0.07078925    -0.84800
O51         O  0.62780211  0.67659106  0.11696397    -0.79700
O52         O  0.62110296  0.69828802  0.49659461    -0.81400
O53         O  0.69778045  0.60582411  0.05706352    -0.84200
C54         C  0.63679037  0.71058955  0.11505404     0.96600
C55         C  0.57182324  0.66860081  0.06319610     1.04000
O56         O  0.64603770  0.65999649  0.05029037    -1.13200
O57         O  0.64760178  0.59719930  0.00859357    -0.75600
O58         O  0.63116956  0.58066874  0.05735394    -0.79100
O59         O  0.64345482  0.72606294  0.08867210    -0.79800
C60         C  0.63511562  0.57376805  0.02738083     0.95500
O61         O  0.67461219  0.62126337  0.10252960    -0.77700
O62         O  0.66521026  0.67342379  0.48114756    -0.82900
C63         C  0.70215841  0.71399013  0.02782587     0.98100
C64         C  0.64156591  0.69356364  0.47543478     1.04000
O65         O  0.67526705  0.72876512  0.02758990    -0.78600
C66         C  0.69828378  0.60968119  0.08744745     1.02300
Fe67       Fe  0.37938448  0.63278492  0.08334966     1.65800
Fe68       Fe  0.33365468  0.64107483  0.01941671     1.73200
Fe69       Fe  0.37755235  0.71274900  0.04131654     1.54400
O70         O  0.36425157  0.72825179  0.08617055    -0.82300
O71         O  0.34861884  0.67395928  0.48229586    -0.80600
O72         O  0.38240074  0.67966159  0.11388967    -0.84800
O73         O  0.42413686  0.64029159  0.06801314    -0.79700
O74         O  0.33432543  0.73054057  0.02450332    -0.81400
O75         O  0.36342739  0.59890339  0.00721755    -0.84200
C76         C  0.43754073  0.67108180  0.06196936     0.96600
C77         C  0.37296405  0.71361728  0.11224540     1.04000
O78         O  0.36375261  0.66213123  0.04811482    -1.13200
O79         O  0.31240099  0.60861744  0.05534848    -0.75600
O80         O  0.33524807  0.62507714  0.10055710    -0.79100
O81         O  0.42243347  0.70110386  0.05652491    -0.79800
C82         C  0.31178610  0.61310366  0.08573195     0.95500
O83         O  0.37818683  0.58255027  0.05644584    -0.77700
O84         O  0.30331766  0.68183287  0.03148572    -0.82900
C85         C  0.37239119  0.69398259  0.47669547     0.98100
C86         C  0.30758662  0.71588276  0.02502771     1.04000
O87         O  0.39177344  0.70025301  0.49848001    -0.78600
C88         C  0.37467658  0.57513504  0.02660174     1.02300
Fe89       Fe  0.12987100  0.86879496  0.41482942     1.65800
Fe90       Fe  0.17642771  0.86101280  0.47776772     1.73200
Fe91       Fe  0.13220762  0.78919027  0.45763614     1.54400
O92         O  0.08703520  0.80110357  0.44348356    -0.82300
O93         O  0.20652854  0.82045990  0.46491640    -0.80600
O94         O  0.08572834  0.86167882  0.43096335    -0.84800
O95         O  0.12594498  0.82175230  0.38449754    -0.79700
O96         O  0.11920003  0.80312475  0.00220139    -0.81400
O97         O  0.19633178  0.89389145  0.44176761    -0.84200
C98         C  0.13565954  0.78794281  0.38638315     0.96600
C99         C  0.07216122  0.83122946  0.43760426     1.04000
O100        O  0.14587548  0.83963313  0.44996279    -1.13200
O101        O  0.14653728  0.90220845  0.49071425    -0.75600
O102        O  0.13152380  0.91913181  0.44178344    -0.79100
O103        O  0.14431767  0.77332777  0.41249461    -0.79800
C104        C  0.13504377  0.92613423  0.47172847     0.95500
O105        O  0.17375000  0.87592345  0.39686813    -0.77700
O106        O  0.16229550  0.83068083  0.01671924    -0.82900
C107        C  0.20264927  0.78666115  0.47253825     0.98100
C108        C  0.13945489  0.80965269  0.02315402     1.04000
O109        O  0.17598066  0.77171054  0.47352605    -0.78600
C110        C  0.19706766  0.88832942  0.41159216     1.02300
Fe111      Fe  0.87977516  0.87086141  0.41234916     1.65800
Fe112      Fe  0.83360983  0.86206172  0.47605986     1.73200
Fe113      Fe  0.87894901  0.79079935  0.45477565     1.54400
O114        O  0.86699586  0.77537696  0.40958224    -0.82300
O115        O  0.84843881  0.82656169  0.01628536    -0.80600
O116        O  0.88381000  0.82428623  0.38152776    -0.84800
O117        O  0.92412794  0.86396939  0.42766309    -0.79700
O118        O  0.83556462  0.77257860  0.47100212    -0.81400
O119        O  0.86287656  0.90377742  0.48850729    -0.84200
C120        C  0.93819470  0.83380703  0.43449035     0.96600
C121        C  0.87488166  0.79028900  0.38328542     1.04000
O122        O  0.86438589  0.84123588  0.44764109    -1.13200
O123        O  0.81272820  0.89481930  0.44027463    -0.75600
O124        O  0.83591955  0.87806997  0.39506023    -0.79100
O125        O  0.92385506  0.80345288  0.44033154    -0.79800
C126        C  0.81241069  0.89024323  0.40992431     0.95500
O127        O  0.87773458  0.92092582  0.43951080    -0.77700
O128        O  0.80406081  0.82118593  0.46379052    -0.82900
C129        C  0.87176012  0.80538606  0.02120301     0.98100
C130        C  0.80863332  0.78725131  0.47077872     1.04000
O131        O  0.89129483  0.79925844  0.99931416    -0.78600
C132        C  0.87432719  0.92772513  0.46951037     1.02300
Fe133      Fe  0.87948384  0.62862518  0.16381613     1.65800
Fe134      Fe  0.83307537  0.63984832  0.22739333     1.73200
Fe135      Fe  0.87831493  0.71000157  0.20437788     1.54400
O136        O  0.92322131  0.69742574  0.18938212    -0.82300
O137        O  0.80373141  0.68086918  0.21384716    -0.80600
O138        O  0.92442563  0.63669447  0.17759403    -0.84800
O139        O  0.88208102  0.67427206  0.13171529    -0.79700
O140        O  0.89154354  0.69845112  0.25008877    -0.81400
O141        O  0.81167616  0.60621113  0.19277529    -0.84200
C142        C  0.87342260  0.70857404  0.13301788     0.96600
C143        C  0.93807553  0.66735435  0.18315697     1.04000
O144        O  0.86406408  0.65931546  0.19851933    -1.13200
O145        O  0.86197930  0.59781497  0.24112912    -0.75600
O146        O  0.87895952  0.57984560  0.19291478    -0.79100
O147        O  0.86570017  0.72413273  0.15913188    -0.79800
C148        C  0.87490045  0.57388347  0.22302796     0.95500
O149        O  0.83527099  0.62012917  0.14727490    -0.77700
O150        O  0.84801313  0.67283651  0.26631964    -0.82900
C151        C  0.80825753  0.71471782  0.22078927     0.98100
C152        C  0.87152802  0.69317262  0.27167365     1.04000
O153        O  0.83513767  0.72900314  0.22095709    -0.78600
C154        C  0.81143409  0.60941309  0.16233257     1.02300
Fe155      Fe  0.13135321  0.63282097  0.16462081     1.65800
Fe156      Fe  0.17698347  0.64166413  0.22848703     1.73200
Fe157      Fe  0.13180889  0.71316630  0.20672137     1.54400
O158        O  0.14472161  0.72864925  0.16169063    -0.82300
O159        O  0.16140027  0.67330971  0.26815009    -0.80600
O160        O  0.12869188  0.67936793  0.13359061    -0.84800
O161        O  0.08640761  0.64077298  0.17867182    -0.79700
O162        O  0.17487830  0.73138977  0.22354732    -0.81400
O163        O  0.14802780  0.59939719  0.24123454    -0.84200
C164        C  0.07241113  0.67127058  0.18490634     0.96600
C165        C  0.13726199  0.71351405  0.13543155     1.04000
O166        O  0.14633361  0.66245529  0.19991736    -1.13200
O167        O  0.19873971  0.60891326  0.19303919    -0.75600
O168        O  0.17564649  0.62456502  0.14783527    -0.79100
O169        O  0.08693264  0.70122139  0.19154855    -0.79800
C170        C  0.19933250  0.61307161  0.16268774     0.95500
O171        O  0.13194665  0.58301236  0.19249025    -0.77700
O172        O  0.20649070  0.68287786  0.21611771    -0.82900
C173        C  0.13762297  0.69351247  0.27388700     0.98100
C174        C  0.20181378  0.71683629  0.22286566     1.04000
O175        O  0.11823005  0.70039968  0.25215949    -0.78600
C176        C  0.13558667  0.57607335  0.22247783     1.02300
Fe177      Fe  0.62880948  0.37309160  0.41060361     1.65800
Fe178      Fe  0.67437385  0.36335631  0.47474465     1.73200
Fe179      Fe  0.63082548  0.29188796  0.45126457     1.54400
O180        O  0.58567942  0.30433822  0.43653875    -0.82300
O181        O  0.70505474  0.32272875  0.46316778    -0.80600
O182        O  0.58420697  0.36553439  0.42584926    -0.84800
O183        O  0.62521918  0.32696359  0.37890329    -0.79700
O184        O  0.61710778  0.30201758  0.99607010    -0.81400
O185        O  0.69572533  0.39594801  0.43907383    -0.84200
C186        C  0.63527120  0.29322821  0.38002665     0.96600
C187        C  0.57074568  0.33475623  0.43169210     1.04000
O188        O  0.64434120  0.34283423  0.44562015    -1.13200
O189        O  0.64458554  0.40527904  0.48719464    -0.75600
O190        O  0.63017604  0.42309091  0.43831489    -0.79100
O191        O  0.64416782  0.27829012  0.40589825    -0.79800
C192        C  0.63346867  0.42968073  0.46836356     0.95500
O193        O  0.67301553  0.38036755  0.39357109    -0.77700
O194        O  0.65974401  0.32901728  0.01251425    -0.82900
C195        C  0.70087375  0.28845794  0.46895199     0.98100
C196        C  0.63660448  0.30804628  0.01780057     1.04000
O197        O  0.67422092  0.27363542  0.46751077    -0.78600
C198        C  0.69666338  0.39111714  0.40874297     1.02300
Fe199      Fe  0.37847264  0.37098598  0.41128383     1.65800
Fe200      Fe  0.33202847  0.36203482  0.47487589     1.73200
Fe201      Fe  0.37687321  0.29047859  0.45260206     1.54400
O202        O  0.36341316  0.27576686  0.40778021    -0.82300
O203        O  0.34460323  0.33008618  0.01626686    -0.80600
O204        O  0.38149923  0.32431053  0.38001732    -0.84800
O205        O  0.42304854  0.36295831  0.42610379    -0.79700
O206        O  0.33366585  0.27257826  0.47019112    -0.81400
O207        O  0.36092567  0.40401768  0.48768760    -0.84200
C208        C  0.43671745  0.33203316  0.43134082     0.96600
C209        C  0.37172740  0.29056649  0.38159412     1.04000
O210        O  0.36277274  0.34129419  0.44622890    -1.13200
O211        O  0.31079265  0.39494402  0.43949618    -0.75600
O212        O  0.33463155  0.37917603  0.39441719    -0.79100
O213        O  0.42191187  0.30187178  0.43670529    -0.79800
C214        C  0.31091986  0.39107654  0.40909223     0.95500
O215        O  0.37710577  0.42096710  0.43908803    -0.77700
O216        O  0.30233863  0.32112495  0.46270579    -0.82900
C217        C  0.36820011  0.30974203  0.02227628     0.98100
C218        C  0.30674055  0.28729983  0.47012982     1.04000
O219        O  0.38854077  0.30420223  0.00103800    -0.78600
C220        C  0.37283365  0.42793626  0.46900393     1.02300
Fe221      Fe  0.37919038  0.13067559  0.16213862     1.65800
Fe222      Fe  0.33142590  0.13938469  0.22477916     1.73200
Fe223      Fe  0.37718197  0.21029605  0.20516392     1.54400
O224        O  0.42250106  0.19838928  0.19060977    -0.82300
O225        O  0.30219094  0.18104051  0.21179628    -0.80600
O226        O  0.42371980  0.13782225  0.17785352    -0.84800
O227        O  0.38255436  0.17816290  0.13175243    -0.79700
O228        O  0.38944154  0.19567723  0.25050372    -0.81400
O229        O  0.31148498  0.10698210  0.18864480    -0.84200
C230        C  0.37334574  0.21228335  0.13385718     0.96600
C231        C  0.43731439  0.16819129  0.18467151     1.04000
O232        O  0.36293796  0.16000650  0.19723523    -1.13200
O233        O  0.35999697  0.09675229  0.23786445    -0.75600
O234        O  0.37747223  0.08003518  0.18951036    -0.79100
O235        O  0.36535403  0.22697169  0.16024728    -0.79800
C236        C  0.37257898  0.07293950  0.21937188     0.95500
O237        O  0.33544630  0.12328567  0.14395589    -0.77700
O238        O  0.34522556  0.17091787  0.26504948    -0.82900
C239        C  0.30661325  0.21453001  0.22009741     0.98100
C240        C  0.36863490  0.19099813  0.27134893     1.04000
O241        O  0.33357121  0.22859166  0.22149440    -0.78600
C242        C  0.31154895  0.11166799  0.15837219     1.02300
Fe243      Fe  0.62977402  0.13058243  0.16081029     1.65800
Fe244      Fe  0.67573762  0.13970702  0.22453502     1.73200
Fe245      Fe  0.63129387  0.21163700  0.20185118     1.54400
O246        O  0.64299488  0.22630797  0.15634159    -0.82300
O247        O  0.66136945  0.17277873  0.26385846    -0.80600
O248        O  0.62690906  0.17675449  0.12897094    -0.84800
O249        O  0.58492730  0.13918297  0.17550345    -0.79700
O250        O  0.67508088  0.22919581  0.21683162    -0.81400
O251        O  0.64603067  0.09848021  0.23781964    -0.84200
C252        C  0.57129780  0.16986172  0.18209619     0.96600
C253        C  0.63503980  0.21114168  0.13027636     1.04000
O254        O  0.64529444  0.16064018  0.19564446    -1.13200
O255        O  0.69672397  0.10581319  0.18947979    -0.75600
O256        O  0.67403947  0.12171292  0.14395621    -0.79100
O257        O  0.58600810  0.19984167  0.18816835    -0.79800
C258        C  0.69742983  0.10977320  0.15909137     0.95500
O259        O  0.63049986  0.08098039  0.18919858    -0.77700
O260        O  0.70602297  0.17975043  0.21174812    -0.82900
C261        C  0.63841727  0.19434184  0.26940862     0.98100
C262        C  0.70183262  0.21410087  0.21748767     1.04000
O263        O  0.61856893  0.20054351  0.24796906    -0.78600
C264        C  0.63401315  0.07456258  0.21930612     1.02300
Fe265      Fe  0.87835035  0.36732268  0.33220994     1.65800
Fe266      Fe  0.83385806  0.36018126  0.26734008     1.73200
Fe267      Fe  0.87816368  0.28802208  0.28884928     1.54400
O268        O  0.92263957  0.29990233  0.30507316    -0.82300
O269        O  0.80426507  0.31867707  0.27752570    -0.80600
O270        O  0.92308832  0.36048158  0.31744513    -0.84800
O271        O  0.88154069  0.31976191  0.36216546    -0.79700
O272        O  0.89285023  0.30154727  0.24396429    -0.81400
O273        O  0.81117337  0.39105040  0.30351189    -0.84200
C274        C  0.87183211  0.28612589  0.35982444     0.96600
C275        C  0.93708701  0.33016258  0.31071879     1.04000
O276        O  0.86371203  0.33859014  0.29614587    -1.13200
O277        O  0.86290362  0.40284167  0.25665778    -0.75600
O278        O  0.87739070  0.41829188  0.30607656    -0.79100
O279        O  0.86395661  0.27190608  0.33334795    -0.79800
C280        C  0.87462938  0.42583981  0.27614520     0.95500
O281        O  0.83397992  0.37448599  0.34884009    -0.77700
O282        O  0.85055145  0.32993472  0.22716686    -0.82900
C283        C  0.80882940  0.28490145  0.27002079     0.98100
C284        C  0.87409124  0.30911874  0.22180998     1.04000
O285        O  0.83563608  0.27004910  0.27056207    -0.78600
C286        C  0.81045163  0.38629216  0.33386369     1.02300
Fe287      Fe  0.12939965  0.37059120  0.33390092     1.65800
Fe288      Fe  0.17719431  0.36087933  0.27133693     1.73200
Fe289      Fe  0.13043890  0.29083106  0.29092435     1.54400
O290        O  0.14070706  0.27371799  0.33623534    -0.82300
O291        O  0.16350526  0.32939213  0.23114176    -0.80600
O292        O  0.12557678  0.32345738  0.36461600    -0.84800
O293        O  0.08489513  0.36415252  0.31844209    -0.79700
O294        O  0.17406955  0.27153535  0.27555302    -0.81400
O295        O  0.14894614  0.40373913  0.25792561    -0.84200
C296        C  0.07095857  0.33427726  0.31105207     0.96600
C297        C  0.13312962  0.28873856  0.36266036     1.04000
O298        O  0.14541632  0.34079834  0.29894389    -1.13200
O299        O  0.19726395  0.39344540  0.30717119    -0.75600
O300        O  0.17308930  0.37782928  0.35196352    -0.79100
O301        O  0.08536080  0.30406694  0.30432874    -0.79800
C302        C  0.19686955  0.38962223  0.33752862     0.95500
O303        O  0.13127142  0.42073440  0.30613871    -0.77700
O304        O  0.20592467  0.31887189  0.28468384    -0.82900
C305        C  0.13972632  0.31011835  0.22460229     0.98100
C306        C  0.20116652  0.28524941  0.27693535     1.04000
O307        O  0.11890980  0.30541517  0.24537405    -0.78600
C308        C  0.13602731  0.42751776  0.27622267     1.02300
Fe309      Fe  0.13045179  0.13178774  0.08416464     1.65800
Fe310      Fe  0.17540923  0.14110192  0.01949453     1.73200
Fe311      Fe  0.13142515  0.21286701  0.04347876     1.54400
O312        O  0.08669977  0.20099480  0.05926381    -0.82300
O313        O  0.20561889  0.18182375  0.03101682    -0.80600
O314        O  0.08565686  0.13983900  0.06969740    -0.84800
O315        O  0.12724245  0.17777747  0.11574867    -0.79700
O316        O  0.11806696  0.19909295  0.49768947    -0.81400
O317        O  0.19728793  0.10804110  0.05423554    -0.84200
C318        C  0.13685763  0.21149392  0.11443834     0.96600
C319        C  0.07195982  0.17071591  0.06411340     1.04000
O320        O  0.14546120  0.16184639  0.04900849    -1.13200
O321        O  0.14594871  0.09917309  0.00733497    -0.75600
O322        O  0.13161734  0.08218739  0.05649938    -0.79100
O323        O  0.14527205  0.22657001  0.08843172    -0.79800
C324        C  0.13473408  0.07524970  0.02651698     0.95500
O325        O  0.17486379  0.12363411  0.10020835    -0.77700
O326        O  0.16083581  0.17182349  0.48040065    -0.82900
C327        C  0.20103808  0.21608434  0.02525631     0.98100
C328        C  0.13735626  0.19281347  0.47558027     1.04000
O329        O  0.17425592  0.23097203  0.02606328    -0.78600
C330        C  0.19826777  0.11220924  0.08456814     1.02300
Fe331      Fe  0.87969984  0.13230955  0.08195805     1.65800
Fe332      Fe  0.83234135  0.14024088  0.01913310     1.73200
Fe333      Fe  0.87829394  0.21116068  0.03788664     1.54400
O334        O  0.86582427  0.22868273  0.08250279    -0.82300
O335        O  0.84689630  0.17062308  0.47777755    -0.80600
O336        O  0.88311126  0.18036946  0.11147377    -0.84800
O337        O  0.92416729  0.13895644  0.06602845    -0.79700
O338        O  0.83519367  0.22977562  0.02044566    -0.81400
O339        O  0.86040118  0.09653910  0.00714186    -0.84200
C340        C  0.93798116  0.16918469  0.05931538     0.96600
C341        C  0.87395531  0.21446162  0.10898698     1.04000
O342        O  0.86366053  0.16109522  0.04649237    -1.13200
O343        O  0.81111382  0.10961411  0.05621072    -0.75600
O344        O  0.83607756  0.12479224  0.10051459    -0.82300
O345        O  0.92331786  0.19939225  0.05315943    -0.79800
C346        C  0.81203896  0.11305512  0.08668268     0.95500
O347        O  0.87812513  0.08127897  0.05559592    -0.77700
O348        O  0.80360687  0.18280916  0.03081955    -0.82900
C349        C  0.87081976  0.18983410  0.47142077     0.98100
C350        C  0.80816446  0.21586685  0.02136635     1.04000
O351        O  0.89092560  0.19531880  0.49262697    -0.78600
C352        C  0.87304921  0.07330248  0.02604448     1.02300
C353        C  0.02212693  0.13759918  0.05638796    -0.26900
C354        C  0.03766840  0.17113362  0.06287490    -0.15000
C355        C  0.02017432  0.20417631  0.06753921     0.35600
C356        C  0.98785945  0.20304650  0.06571019    -0.26400
C357        C  0.97230820  0.16943840  0.05945790    -0.15600
C358        C  0.98981812  0.13638990  0.05431971     0.36700
N359        N  0.97486089  0.10176702  0.04651996    -0.89900
H360        H  0.03528752  0.11216349  0.05229201     0.17800
H361        H  0.97485512  0.22858678  0.06989369     0.17800
N362        N  0.03496986  0.23882970  0.07494427    -0.88900
H363        H  0.99098815  0.08010685  0.04390159     0.35200
H364        H  0.96438665  0.10518897  0.02415660     0.40300
H365        H  0.02653238  0.24827883  0.09705136     0.39900
H366        H  0.02875855  0.25842060  0.05745155     0.34800
C367        C  0.11373065  0.26215557  0.19097096    -0.26900
C368        C  0.13792200  0.28805949  0.19433654    -0.15000
C369        C  0.16189961  0.28797008  0.17125245     0.35600
C370        C  0.16146847  0.26159859  0.14623799    -0.26400
C371        C  0.13765065  0.23531886  0.14345140    -0.15600
C372        C  0.11341030  0.23592720  0.16609489     0.36700
N373        N  0.08775761  0.21099529  0.16407923    -0.89900
H374        H  0.09507082  0.26148112  0.20830071     0.17800
H375        H  0.17987124  0.26167026  0.12858500     0.17800
N376        N  0.18679487  0.31419975  0.17333265    -0.88900
H377        H  0.09584662  0.18350695  0.16625113     0.35200
H378        H  0.07737761  0.21431213  0.14165623     0.40300
H379        H  0.17755737  0.34091298  0.16944771     0.39900
H380        H  0.20292793  0.30954584  0.15504789     0.34800
C381        C  0.11840310  0.24934814  0.44667757    -0.26900
C382        C  0.13407202  0.21468101  0.44532606    -0.15000
C383        C  0.14842135  0.20398725  0.41637045     0.35600
C384        C  0.14779265  0.22867733  0.38999883    -0.26400
C385        C  0.13292490  0.26396524  0.39163353    -0.15600
C386        C  0.11740966  0.27384534  0.42027000     0.36700
N387        N  0.10055813  0.30852738  0.42258304    -0.89900
H388        H  0.10731610  0.25795415  0.46882870     0.17800
H389        H  0.15930761  0.22026023  0.36803848     0.17800
N390        N  0.16359880  0.16822763  0.41379008    -0.88900
H391        H  0.09123524  0.31196135  0.44556902     0.35200
H392        H  0.08186454  0.30683773  0.40691578     0.40300
H393        H  0.17305713  0.16465467  0.39088072     0.39900
H394        H  0.14680804  0.14759103  0.41651293     0.34800
C395        C  0.89796624  0.23608503  0.15966982    -0.26900
C396        C  0.87413848  0.23948933  0.13735214    -0.15000
C397        C  0.85246438  0.26886321  0.14093959     0.35600
C398        C  0.85413780  0.29300290  0.16743556    -0.26400
C399        C  0.87737006  0.28893889  0.19057039    -0.15600
C400        C  0.90032575  0.26087741  0.18573525     0.36700
N401        N  0.92591868  0.25730861  0.20729857    -0.89900
H402        H  0.91534393  0.21451330  0.15629116     0.17800
H403        H  0.83636472  0.31415580  0.17043732     0.17800
N404        N  0.82801699  0.27358071  0.11828271    -0.88900
H405        H  0.93933922  0.28128424  0.20442252     0.35200
H406        H  0.93998726  0.23460141  0.20095820     0.40300
H407        H  0.82953081  0.30055767  0.10868796     0.39900
H408        H  0.80706887  0.27156691  0.13061734     0.34800
C409        C  0.84773291  0.21164449  0.41977011    -0.26900
C410        C  0.87318861  0.21072270  0.44055142    -0.15000
C411        C  0.89836033  0.23472613  0.43401606     0.35600
C412        C  0.89688951  0.26006292  0.40834144    -0.26400
C413        C  0.87116988  0.26149990  0.38828219    -0.15600
C414        C  0.84658003  0.23667362  0.39379520     0.36700
N415        N  0.81989071  0.23771718  0.37369799    -0.89900
H416        H  0.82800024  0.19397168  0.42434422     0.17800
H417        H  0.91633241  0.27819373  0.40366044     0.17800
N418        N  0.92551336  0.23381141  0.45343209    -0.88900
H419        H  0.80070057  0.24354904  0.38814073     0.35200
H420        H  0.81701784  0.21110851  0.36375313     0.40300
H421        H  0.92869105  0.26048686  0.46314481     0.39900
H422        H  0.94435859  0.22772216  0.43858582     0.34800
C423        C  0.98670729  0.35884267  0.32706613    -0.26900
C424        C  0.97138511  0.33043952  0.31020410    -0.15000
C425        C  0.98930093  0.30410036  0.29265560     0.35600
C426        C  0.02147230  0.30626745  0.29305235    -0.26400
C427        C  0.03672351  0.33422063  0.31044266    -0.15600
C428        C  0.01894177  0.36102254  0.32732467     0.36700
N429        N  0.03337152  0.39016219  0.34534639    -0.89900
H430        H  0.97362749  0.37947750  0.34055828     0.17800
H431        H  0.03464700  0.28585337  0.27941030     0.17800
N432        N  0.97572043  0.27548232  0.27340141    -0.88900
H433        H  0.02625525  0.38785126  0.36925343     0.35200
H434        H  0.02551389  0.41589803  0.33653260     0.40300
H435        H  0.96062670  0.28817547  0.25720793     0.39900
H436        H  0.96354161  0.25719929  0.28825596     0.34800
C437        C  0.75509868  0.10652173  0.15714234    -0.26900
C438        C  0.72686097  0.10260496  0.14110942    -0.15000
C439        C  0.72742300  0.09663040  0.10753868     0.35600
C440        C  0.75566904  0.09785237  0.09066193    -0.26400
C441        C  0.78370568  0.10494423  0.10633946    -0.15600
C442        C  0.78326261  0.10786662  0.14026714     0.36700
N443        N  0.81116188  0.11341803  0.15783796    -0.89900
H444        H  0.75531010  0.11076343  0.18288161     0.17800
H445        H  0.75548440  0.09478335  0.06482022     0.17800
N446        N  0.69922998  0.09024146  0.09048098    -0.88900
H447        H  0.81340425  0.09159181  0.17439827     0.35200
H448        H  0.80909464  0.13849926  0.17062776     0.40300
H449        H  0.69017587  0.06491680  0.09869127     0.39900
H450        H  0.70350828  0.08685705  0.06594890     0.34800
C451        C  0.75842019  0.22159753  0.22028116    -0.26900
C452        C  0.72888254  0.23522072  0.22847693    -0.15000
C453        C  0.72620825  0.26432813  0.25130737     0.35600
C454        C  0.75256128  0.27805704  0.26589581    -0.26400
C455        C  0.78201315  0.26439005  0.25785417    -0.15600
C456        C  0.78494012  0.23606268  0.23456004     0.36700
N457        N  0.81465717  0.22261781  0.22464038    -0.89900
H458        H  0.76098707  0.19925339  0.20285543     0.17800
H459        H  0.74990460  0.30025029  0.28344712     0.17800
N460        N  0.69720318  0.28018326  0.26082388    -0.88900
H461        H  0.81690525  0.22719735  0.19996620     0.35200
H462        H  0.81551493  0.19373597  0.22864214     0.40300
H463        H  0.68345650  0.25908922  0.27041934     0.39900
H464        H  0.68649990  0.29170278  0.24066575     0.34800
C465        C  0.48723397  0.20144334  0.17610705    -0.26900
C466        C  0.47162610  0.16866269  0.18507352    -0.15000
C467        C  0.48902261  0.13658536  0.19357545     0.35600
C468        C  0.52138820  0.13776202  0.19217843    -0.26400
C469        C  0.53701171  0.17038435  0.18294189    -0.15600
C470        C  0.51966838  0.20257750  0.17464071     0.36700
N471        N  0.53492713  0.23596970  0.16393424    -0.89900
H472        H  0.47403371  0.22602032  0.16932222     0.17800
H473        H  0.53454899  0.11311460  0.19887123     0.17800
N474        N  0.47383535  0.10306748  0.20411452    -0.88900
H475        H  0.51888274  0.25708872  0.15887592     0.35200
H476        H  0.54606587  0.22967325  0.14228733     0.40300
H477        H  0.46252853  0.10923586  0.22568920     0.39900
H478        H  0.48990915  0.08199905  0.20923252     0.34800
C479        C  0.22665704  0.10115690  0.13589183    -0.26900
C480        C  0.22761916  0.10509373  0.10234489    -0.15000
C481        C  0.25678251  0.10655245  0.08713573     0.35600
C482        C  0.28384730  0.10661543  0.10568742    -0.26400
C483        C  0.28278272  0.10495531  0.13944541    -0.15600
C484        C  0.25366787  0.10089518  0.15441476     0.36700
N485        N  0.25109515  0.09781553  0.18857412    -0.89900
H486        H  0.20463894  0.09947309  0.14813339     0.17800
H487        H  0.30580521  0.10931037  0.09347826     0.17800
N488        N  0.25917949  0.10956634  0.05294947    -0.88900
H489        H  0.23994062  0.07269360  0.19387537     0.35200
H490        H  0.23722173  0.11980116  0.19689109     0.40300
H491        H  0.27222927  0.08685378  0.04460374     0.39900
H492        H  0.27118947  0.13403062  0.04747423     0.34800
C493        C  0.28320001  0.25501254  0.26150789    -0.26900
C494        C  0.27990467  0.23526500  0.23268070    -0.15000
C495        C  0.25028551  0.22995398  0.21977864     0.35600
C496        C  0.22445111  0.24406081  0.23604579    -0.26400
C497        C  0.22774574  0.26389951  0.26482699    -0.15600
C498        C  0.25738227  0.26932298  0.27767598     0.36700
N499        N  0.26126700  0.28908785  0.30728538    -0.89900
H500        H  0.30578102  0.25821447  0.27215495     0.17800
H501        H  0.20188966  0.24099918  0.22532006     0.17800
N502        N  0.24646191  0.21098563  0.18978702    -0.88900
H503        H  0.27558035  0.31199854  0.30297158     0.35200
H504        H  0.27251092  0.27127216  0.32341009     0.40300
H505        H  0.23553789  0.22938807  0.17390574     0.39900
H506        H  0.23180507  0.18829279  0.19355292     0.34800
C507        C  0.39248266  0.24239720  0.30293752    -0.26900
C508        C  0.36995165  0.21409264  0.30119712    -0.15000
C509        C  0.34745369  0.21237224  0.32590711     0.35600
C510        C  0.34842474  0.23792006  0.35132531    -0.26400
C511        C  0.37068338  0.26634172  0.35268403    -0.15600
C512        C  0.39291939  0.26862510  0.32807966     0.36700
N513        N  0.41606643  0.29723153  0.32874936    -0.89900
H514        H  0.40966010  0.24479959  0.28415160     0.17800
H515        H  0.33118577  0.23578850  0.37011651     0.17800
N516        N  0.32313048  0.18545566  0.32601325    -0.88900
H517        H  0.43033443  0.29544389  0.30853443     0.35200
H518        H  0.43009930  0.29213867  0.34859574     0.40300
H519        H  0.33276339  0.15861075  0.32458742     0.39900
H520        H  0.30888415  0.19028920  0.30627996     0.34800
C521        C  0.39399464  0.26031964  0.05521695    -0.26900
C522        C  0.37062824  0.28785854  0.05274058    -0.15000
C523        C  0.34823483  0.29003059  0.07733115     0.35600
C524        C  0.34951739  0.26494756  0.10328779    -0.26400
C525        C  0.37237214  0.23688673  0.10514805    -0.15600
C526        C  0.39505198  0.23487536  0.08095728     0.36700
N527        N  0.41930685  0.20735765  0.08273081    -0.89900
H528        H  0.41133486  0.25791160  0.03657106     0.17800
H529        H  0.33212496  0.26710504  0.12194064     0.17800
N530        N  0.32382966  0.31714314  0.07596344    -0.88900
H531        H  0.43272460  0.21365581  0.10277400     0.35200
H532        H  0.43387571  0.20922161  0.06276794     0.40300
H533        H  0.32482466  0.33359764  0.09666637     0.39900
H534        H  0.30288188  0.30283545  0.07617348     0.34800
C535        C  0.22455723  0.25955948  0.48828917    -0.26900
C536        C  0.22742124  0.23745674  0.01349299    -0.15000
C537        C  0.25711462  0.23106528  0.02600662     0.35600
C538        C  0.28424189  0.24278916  0.50904838    -0.26400
C539        C  0.28001067  0.26657068  0.48262288    -0.15600
C540        C  0.24980789  0.27523520  0.47224954     0.36700
N541        N  0.24489791  0.29983685  0.44539456    -0.89900
H542        H  0.20148408  0.26501392  0.47951613     0.17800
H543        H  0.30731472  0.23738142  0.51784338     0.17800
N544        N  0.26101278  0.21026663  0.05526674    -0.88900
H545        H  0.22136368  0.30358424  0.44107882     0.35200
H546        H  0.25417377  0.28679673  0.42505725     0.40300
H547        H  0.25032650  0.22548957  0.07366310     0.39900
H548        H  0.28433446  0.20815746  0.06124883     0.34800
C549        C  0.25372888  0.40070625  0.40664196    -0.26900
C550        C  0.28215325  0.39841195  0.39039526    -0.15000
C551        C  0.28208690  0.39851625  0.35637041     0.35600
C552        C  0.25391701  0.39776358  0.33979015    -0.26400
C553        C  0.22553405  0.39719632  0.35612111    -0.15600
C554        C  0.22562686  0.40008091  0.38994166     0.36700
N555        N  0.19728441  0.40167180  0.40761511    -0.89900
H556        H  0.25312575  0.40115353  0.43262492     0.17800
H557        H  0.25428905  0.39598149  0.31385185     0.17800
N558        N  0.31056519  0.39828991  0.33861692    -0.88900
H559        H  0.19704175  0.42640517  0.42102074     0.35200
H560        H  0.19692867  0.37913143  0.42362119     0.40300
H561        H  0.32156818  0.42369541  0.34311531     0.39900
H562        H  0.30647528  0.39735724  0.31393031     0.34800
C563        C  0.75739955  0.27961926  0.47204901    -0.26900
C564        C  0.72780129  0.26699839  0.48052170    -0.15000
C565        C  0.72531663  0.23743533  0.00172173     0.35600
C566        C  0.75168341  0.22324107  0.01641199    -0.26400
C567        C  0.78123117  0.23625264  0.00835849    -0.15600
C568        C  0.78385833  0.26461459  0.48636226     0.36700
N569        N  0.81357707  0.27760255  0.47648249    -0.89900
H570        H  0.76007357  0.30166776  0.45439279     0.17800
H571        H  0.74890875  0.20154793  0.03436691     0.17800
N572        N  0.69617034  0.22328549  0.01218966    -0.88900
H573        H  0.81451778  0.30640372  0.48077915     0.35200
H574        H  0.81568509  0.27341217  0.45175714     0.40300
H575        H  0.68484056  0.21159115  0.99256114     0.39900
H576        H  0.68312079  0.24541647  0.02147343     0.34800
C577        C  0.72522747  0.39826682  0.35660838    -0.26900
C578        C  0.72616438  0.39654586  0.39036949    -0.15000
C579        C  0.75540441  0.39498173  0.40535438     0.35600
C580        C  0.78240661  0.39343637  0.38638311    -0.26400
C581        C  0.78136197  0.39351045  0.35259771    -0.15600
C582        C  0.75222851  0.39665782  0.33776938     0.36700
N583        N  0.74962785  0.39653111  0.30353031    -0.89900
H584        H  0.70320880  0.39945149  0.34448590     0.17800
H585        H  0.80448820  0.39112891  0.39825118     0.17800
N586        N  0.75775251  0.39299210  0.43970614    -0.88900
H587        H  0.73821722  0.42107500  0.29660347     0.35200
H588        H  0.73598988  0.37379415  0.29691730     0.40300
H589        H  0.75077552  0.41895382  0.44884818     0.39900
H590        H  0.78066718  0.38927394  0.44672293     0.34800
C591        C  0.61240251  0.24318498  0.30322519    -0.26900
C592        C  0.63646536  0.21668512  0.29967678    -0.15000
C593        C  0.66044364  0.21664501  0.32253032     0.35600
C594        C  0.65982713  0.24244096  0.34793883    -0.26400
C595        C  0.63610841  0.26919526  0.35100251    -0.15600
C596        C  0.61219784  0.26944764  0.32834487     0.36700
N597        N  0.58730041  0.29576596  0.33107370    -0.89900
H598        H  0.59385943  0.24432739  0.28593125     0.17800
H599        H  0.67834200  0.24175788  0.36530634     0.17800
N600        N  0.68605323  0.19137613  0.31964870    -0.88900
H601        H  0.56676312  0.28077797  0.33301580     0.35200
H602        H  0.58645538  0.31141773  0.30989372     0.40300
H603        H  0.68739909  0.17558179  0.34071923     0.39900
H604        H  0.70615140  0.20722928  0.31769936     0.34800
C605        C  0.61820208  0.25157392  0.04706836    -0.26900
C606        C  0.63424139  0.28581848  0.04801512    -0.15000
C607        C  0.65008531  0.29520223  0.07641848     0.35600
C608        C  0.65003165  0.27034240  0.10239280    -0.26400
C609        C  0.63474021  0.23560628  0.10116377    -0.15600
C610        C  0.61818028  0.22652783  0.07317230     0.36700
N611        N  0.60120050  0.19217825  0.07125388    -0.89900
H612        H  0.60612256  0.24367497  0.02544024     0.17800
H613        H  0.66250211  0.27835039  0.12375628     0.17800
N614        N  0.66618672  0.32983378  0.07995951    -0.88900
H615        H  0.59109058  0.18927937  0.04867636     0.35200
H616        H  0.58306237  0.19394468  0.08778242     0.40300
H617        H  0.65111037  0.35187733  0.07457430     0.39900
H618        H  0.68485109  0.33023959  0.06408189     0.34800
C619        C  0.52098892  0.30106252  0.42390998    -0.26900
C620        C  0.53644770  0.33409069  0.43231174    -0.15000
C621        C  0.51890284  0.36610036  0.44081491     0.35600
C622        C  0.48656675  0.36460887  0.43985621    -0.26400
C623        C  0.47104721  0.33165732  0.43139427    -0.15600
C624        C  0.48855667  0.29948732  0.42323404     0.36700
N625        N  0.47349754  0.26554653  0.41373513    -0.89900
H626        H  0.53429065  0.27650285  0.41719594     0.17800
H627        H  0.47334753  0.38926584  0.44649267     0.17800
N628        N  0.53387970  0.39982362  0.45108079    -0.88900
H629        H  0.48967542  0.24445707  0.40892322     0.35200
H630        H  0.46213726  0.27090733  0.39215618     0.40300
H631        H  0.54517159  0.39387603  0.47261783     0.39900
H632        H  0.51769333  0.42080242  0.45621148     0.34800
C633        C  0.12455485  0.49630604  0.28209714    -0.26900
C634        C  0.12849226  0.46500748  0.26208418    -0.15000
C635        C  0.12843028  0.47076863  0.22838313     0.35600
C636        C  0.12821373  0.50724748  0.21575876    -0.26400
C637        C  0.12776210  0.53857911  0.23593837    -0.15600
C638        C  0.12389903  0.53283583  0.26934885     0.36700
N639        N  0.11979151  0.56405354  0.29054324    -0.89900
H640        H  0.12346551  0.49268565  0.30788050     0.17800
H641        H  0.13022272  0.51091011  0.19003173     0.17800
N642        N  0.12934274  0.43968236  0.20668467    -0.88900
H643        H  0.13744058  0.56335860  0.30752978     0.35200
H644        H  0.09884294  0.56069761  0.30264621     0.40300
H645        H  0.14897031  0.44220684  0.19223638     0.39900
H646        H  0.10999410  0.44137814  0.19188570     0.34800
C647        C  0.88690163  0.50568986  0.21737532    -0.26900
C648        C  0.88294630  0.53685901  0.23741778    -0.15000
C649        C  0.88297974  0.53116276  0.27111001     0.35600
C650        C  0.88269755  0.49462190  0.28367244    -0.26400
C651        C  0.88290279  0.46340259  0.26329974    -0.15600
C652        C  0.88712944  0.46923503  0.22995955     0.36700
N653        N  0.89087619  0.43814053  0.20856319    -0.89900
H654        H  0.88809402  0.50932033  0.19159643     0.17800
H655        H  0.88053209  0.49083925  0.30937282     0.17800
N656        N  0.88253280  0.56232890  0.29274559    -0.88900
H657        H  0.91188559  0.44118280  0.19651553     0.35200
H658        H  0.87324983  0.43930383  0.19156289     0.40300
H659        H  0.90188456  0.56026490  0.30751027     0.39900
H660        H  0.86290343  0.56025292  0.30724340     0.34800
C661        C  0.98772890  0.69963443  0.19536194    -0.26900
C662        C  0.97246084  0.66839218  0.18259133    -0.15000
C663        C  0.99043433  0.63882175  0.16971449     0.35600
C664        C  0.02270805  0.64064170  0.17060996    -0.26400
C665        C  0.03801033  0.67152696  0.18395534    -0.15600
C666        C  0.02006212  0.70147358  0.19619609     0.36700
N667        N  0.03437065  0.73363336  0.21004870    -0.89900
H668        H  0.97454874  0.72276661  0.20529147     0.17800
H669        H  0.03582445  0.61750405  0.16059595     0.17800
N670        N  0.97620282  0.60692210  0.15531219    -0.88900
H671        H  0.02667851  0.73618808  0.23375462     0.35200
H672        H  0.02698118  0.75730067  0.19740333     0.40300
H673        H  0.98363639  0.58298165  0.16754936     0.39900
H674        H  0.98390313  0.60494174  0.13156949     0.34800
C675        C  0.88261070  0.96743104  0.01739745    -0.26900
C676        C  0.88161891  0.96516942  0.48329828    -0.15000
C677        C  0.88453094  0.99763987  0.46421591     0.35600
C678        C  0.88435695  0.03295796  0.47912127    -0.26400
C679        C  0.88013273  0.03537010  0.01256295    -0.15600
C680        C  0.88240345  0.00306452  0.03183070     0.36700
N681        N  0.88291850  0.00601498  0.06607867    -0.89900
H682        H  0.88289865  0.94301475  0.03282834     0.17800
H683        H  0.88540896  0.05778230  0.46422129     0.17800
N684        N  0.88587252  0.99501773  0.42982259    -0.88900
H685        H  0.90303017  0.99296959  0.07427210     0.35200
H686        H  0.86409539  0.99130879  0.07527749     0.40300
H687        H  0.90681287  0.98215516  0.42381512     0.39900
H688        H  0.88632339  0.02165037  0.41942204     0.34800
C689        C  0.85431820  0.73504950  0.35406216    -0.26900
C690        C  0.87407585  0.76616458  0.35428818    -0.15000
C691        C  0.89389907  0.77183095  0.32797676     0.35600
C692        C  0.89376600  0.74647521  0.30228287    -0.26400
C693        C  0.87378959  0.71545878  0.30179351    -0.15600
C694        C  0.85382702  0.70979867  0.32819055     0.36700
N695        N  0.83289884  0.67876962  0.32863972    -0.89900
H696        H  0.83896211  0.73042051  0.37421207     0.17800
H697        H  0.90894088  0.75190467  0.28213658     0.17800
N698        N  0.91451515  0.80298382  0.32730075    -0.88900
H699        H  0.81932452  0.67921485  0.34941504     0.35200
H700        H  0.84611657  0.65422919  0.32960270     0.40300
H701        H  0.90963643  0.81890808  0.30687269     0.39900
H702        H  0.93700175  0.79261345  0.32509697     0.34800
C703        C  0.89096829  0.74909068  0.05038434    -0.26900
C704        C  0.87417324  0.78302448  0.05118612    -0.15000
C705        C  0.85715288  0.79207421  0.07900284     0.35600
C706        C  0.85660199  0.76673245  0.10479045    -0.26400
C707        C  0.87303811  0.73255362  0.10382255    -0.15600
C708        C  0.89053753  0.72395048  0.07625278     0.36700
N709        N  0.90824399  0.69003520  0.07442575    -0.89900
H710        H  0.90398116  0.74133104  0.02914222     0.17800
H711        H  0.84326056  0.77397128  0.12593473     0.17800
N712        N  0.84053214  0.82692565  0.08107975    -0.88900
H713        H  0.93131415  0.69712800  0.07067678     0.35200
H714        H  0.90077988  0.67490108  0.05448029     0.40300
H715        H  0.85672264  0.84847104  0.08050739     0.39900
H716        H  0.82899515  0.82915013  0.10306845     0.34800
C717        C  0.12537751  0.96968029  0.01806953    -0.26900
C718        C  0.12807327  0.96381390  0.48537243    -0.15000
C719        C  0.12573785  0.99610165  0.46609221     0.35600
C720        C  0.12581329  0.03165545  0.48049564    -0.26400
C721        C  0.12726812  0.03758783  0.01316446    -0.15600
C722        C  0.12544421  0.00523872  0.03262644     0.36700
N723        N  0.12550963  0.00825597  0.06701341    -0.89900
H724        H  0.12546493  0.94501090  0.03319859     0.17800
H725        H  0.12521037  0.05608969  0.46509390     0.17800
N726        N  0.12496023  0.99321737  0.43184283    -0.88900
H727        H  0.12581466  0.98174499  0.07764922     0.35200
H728        H  0.10466762  0.02078872  0.07384906     0.40300
H729        H  0.14385535  0.00768650  0.42252311     0.39900
H730        H  0.10490227  0.00650265  0.42379187     0.34800
C731        C  0.16032040  0.71496881  0.32544882    -0.26900
C732        C  0.13465453  0.71372709  0.30502540    -0.15000
C733        C  0.10871185  0.73675891  0.31222056     0.35600
C734        C  0.10999160  0.76189158  0.33818163    -0.26400
C735        C  0.13607462  0.76369898  0.35773623    -0.15600
C736        C  0.16116627  0.73953930  0.35162129     0.36700
N737        N  0.18801695  0.74070376  0.37146614    -0.89900
H738        H  0.18048386  0.69788330  0.32044771     0.17800
H739        H  0.09027038  0.77955604  0.34365228     0.17800
N740        N  0.08126044  0.73490868  0.29309347    -0.88900
H741        H  0.20692880  0.74714365  0.35694298     0.35200
H742        H  0.19159069  0.71398100  0.38103733     0.40300
H743        H  0.06465262  0.75397286  0.30132830     0.39900
H744        H  0.07192984  0.70822721  0.29618179     0.34800
C745        C  0.11495218  0.76072167  0.05719865    -0.26900
C746        C  0.13808168  0.78810155  0.05386018    -0.15000
C747        C  0.16110361  0.79017660  0.07790000     0.35600
C748        C  0.16034401  0.76543534  0.10392775    -0.26400
C749        C  0.13776047  0.73758488  0.10652119    -0.15600
C750        C  0.11465258  0.73542384  0.08301659     0.36700
N751        N  0.09070043  0.70793418  0.08561572    -0.89900
H752        H  0.09717826  0.75831468  0.03917346     0.17800
H753        H  0.17804502  0.76757776  0.12210032     0.17800
N754        N  0.18584085  0.81649686  0.07663454    -0.88900
H755        H  0.07572749  0.70969281  0.06608324     0.35200
H756        H  0.07761217  0.71433285  0.10602693     0.40300
H757        H  0.17660787  0.84352483  0.07502596     0.39900
H758        H  0.19956187  0.81080421  0.05654857     0.34800
C759        C  0.98818779  0.80018069  0.44250642    -0.26900
C760        C  0.97246903  0.83373442  0.43555773    -0.15000
C761        C  0.98990327  0.86641160  0.42981571     0.35600
C762        C  0.02209887  0.86481924  0.43116844    -0.26400
C763        C  0.03785991  0.83119077  0.43775662    -0.15600
C764        C  0.02046678  0.79854757  0.44355847     0.36700
N765        N  0.03483685  0.77978723  0.97564266    -0.89900
H766        H  0.97543765  0.77472593  0.44701100     0.17800
H767        H  0.03476577  0.89033565  0.42664610     0.17800
N768        N  0.97526773  0.90140593  0.42236125    -0.88900
H769        H  0.02885602  0.75236701  0.96965456     0.35200
H770        H  0.02653144  0.78527227  0.99875926     0.40300
H771        H  0.98338681  0.91036296  0.40000617     0.39900
H772        H  0.98188960  0.92107232  0.43953742     0.34800
C773        C  0.37911090  0.46925116  0.01865519    -0.26900
C774        C  0.37978508  0.46548206  0.48313530    -0.15000
C775        C  0.38239255  0.49823186  0.46431494     0.35600
C776        C  0.38252769  0.53351445  0.47948754    -0.26400
C777        C  0.38155574  0.53705742  0.01372650    -0.15600
C778        C  0.37957308  0.50478558  0.03306074     0.36700
N779        N  0.37605684  0.50784643  0.06714112    -0.89900
H780        H  0.37616392  0.44503143  0.03399450     0.17800
H781        H  0.38333212  0.55847808  0.46475108     0.17800
N782        N  0.38319537  0.49592340  0.42990188    -0.88900
H783        H  0.39404794  0.49291741  0.07790448     0.35200
H784        H  0.35532611  0.49512536  0.07367441     0.40300
H785        H  0.40408067  0.48321492  0.42346372     0.39900
H786        H  0.38343032  0.52265770  0.41969014     0.34800
C787        C  0.28512490  0.76090888  0.49030489    -0.26900
C788        C  0.28088671  0.73703184  0.01367934    -0.15000
C789        C  0.25153247  0.73165078  0.02740357     0.35600
C790        C  0.22551029  0.74613328  0.01198352    -0.26400
C791        C  0.22961193  0.76649834  0.48485556    -0.15600
C792        C  0.25956504  0.77521358  0.47403008     0.36700
N793        N  0.26412043  0.79825429  0.44629792    -0.89900
H794        H  0.30799071  0.76652543  0.48097772     0.17800
H795        H  0.20308197  0.74299668  0.02318549     0.17800
N796        N  0.24820855  0.71197370  0.05717969    -0.88900
H797        H  0.27694282  0.78293906  0.42948909     0.35200
H798        H  0.27722817  0.82131272  0.45319063     0.40300
H799        H  0.23361448  0.68923312  0.05341259     0.39900
H800        H  0.23748285  0.72994608  0.07363944     0.34800
C801        C  0.22669799  0.60484781  0.10996297    -0.26900
C802        C  0.22838108  0.60583988  0.14373625    -0.15000
C803        C  0.25808110  0.60425593  0.15787977     0.35600
C804        C  0.28456875  0.60409782  0.13839981    -0.26400
C805        C  0.28288489  0.60565992  0.10468507    -0.15600
C806        C  0.25334175  0.60472139  0.09037305     0.36700
N807        N  0.25022972  0.60564188  0.05606219    -0.89900
H808        H  0.20432462  0.60548647  0.09855667     0.17800
H809        H  0.30685244  0.60432230  0.15001942     0.17800
N810        N  0.26247098  0.60445752  0.19191013    -0.88900
H811        H  0.22702949  0.60719777  0.04951583     0.35200
H812        H  0.25853448  0.58011766  0.04719984     0.40300
H813        H  0.25139084  0.58123019  0.20178153     0.39900
H814        H  0.25298826  0.62904312  0.20139812     0.34800
C815        C  0.62143944  0.53326149  0.98045347    -0.26900
C816        C  0.62715530  0.53651088  0.01363427    -0.15000
C817        C  0.62939526  0.50354870  0.03199265     0.35600
C818        C  0.62529018  0.47099921  0.51612965    -0.26400
C819        C  0.62654203  0.46735132  0.48243703    -0.15600
C820        C  0.62533250  0.50021066  0.46371614     0.36700
N821        N  0.62485356  0.49818624  0.42941940    -0.89900
H822        H  0.61890369  0.55828874  0.96597884     0.17800
H823        H  0.62523537  0.44623950  0.53115330     0.17800
N824        N  0.63474626  0.50529940  0.06583569    -0.88900
H825        H  0.63296595  0.51196932  0.91989950     0.35200
H826        H  0.60519079  0.51236640  0.42141318     0.40300
H827        H  0.65556603  0.49157533  0.07066803     0.39900
H828        H  0.60674109  0.49549136  0.57422302     0.34800
C829        C  0.78632720  0.74294551  0.50962363    -0.26900
C830        C  0.78209149  0.76634822  0.48300867    -0.15000
C831        C  0.75198348  0.77478079  0.47251404     0.35600
C832        C  0.72487288  0.75851594  0.98943973    -0.26400
C833        C  0.72883863  0.73509874  0.01609401    -0.15600
C834        C  0.75885201  0.72669834  0.02691293     0.36700
N835        N  0.76349165  0.70375113  0.05469893    -0.89900
H836        H  0.80931292  0.73741212  0.51862778     0.17800
H837        H  0.70196355  0.76424936  0.98031870     0.17800
N838        N  0.74703933  0.79818197  0.44505021    -0.88900
H839        H  0.77579173  0.71929387  0.07154376     0.35200
H840        H  0.77712673  0.68081619  0.04798202     0.40300
H841        H  0.73352140  0.82106312  0.45217331     0.39900
H842        H  0.73457462  0.78292527  0.42814511     0.34800
C843        C  0.72623866  0.59947725  0.13957975    -0.26900
C844        C  0.72744658  0.60212594  0.10586167    -0.15000
C845        C  0.75685081  0.60204341  0.09089019     0.35600
C846        C  0.78373870  0.60243182  0.10985018    -0.26400
C847        C  0.78247032  0.60220410  0.14362242    -0.15600
C848        C  0.75318496  0.59922997  0.15840693     0.36700
N849        N  0.75042173  0.59717192  0.19260785    -0.89900
H850        H  0.70410455  0.59884114  0.15167070     0.17800
H851        H  0.80593139  0.60404218  0.09797744     0.17800
N852        N  0.75953927  0.60339930  0.05652615    -0.88900
H853        H  0.73900403  0.57236188  0.19835874     0.35200
H854        H  0.73665952  0.61951364  0.20037833     0.40300
H855        H  0.75175670  0.57779356  0.04764569     0.39900
H856        H  0.78261364  0.60547235  0.04949094     0.34800
C857        C  0.52153930  0.70247436  0.06817207    -0.26900
C858        C  0.53748023  0.66889654  0.06182280    -0.15000
C859        C  0.52012642  0.63658205  0.05416485     0.35600
C860        C  0.48788256  0.63837432  0.05410677    -0.26400
C861        C  0.47190257  0.67170706  0.06125249    -0.15600
C862        C  0.48926042  0.70429745  0.06799459     0.36700
N863        N  0.47631893  0.74092524  0.56445715    -0.89900
H864        H  0.53538495  0.72917460  0.56451971     0.17800
H865        H  0.47519366  0.61327051  0.04822817     0.17800
N866        N  0.53437917  0.60172956  0.04544325    -0.88900
H867        H  0.46212594  0.74227609  0.58474354     0.35200
H868        H  0.46324437  0.74512787  0.54375604     0.40300
H869        H  0.54644755  0.59115172  0.06511544     0.39900
H870        H  0.54964985  0.60639159  0.02641368     0.34800
C871        C  0.62430168  0.99574737  0.28012712    -0.26900
C872        C  0.62792392  0.96407051  0.26055421    -0.15000
C873        C  0.62712666  0.96897514  0.22671990     0.35600
C874        C  0.62670939  0.00535989  0.21357842    -0.26400
C875        C  0.62656693  0.03713137  0.23332513    -0.15600
C876        C  0.62343814  0.03198495  0.26689329     0.36700
N877        N  0.62013826  0.06356336  0.28783655    -0.89900
H878        H  0.62383962  0.99267323  0.30598228     0.17800
H879        H  0.62824217  0.00882093  0.18780504     0.17800
N880        N  0.62772008  0.93704639  0.20571554    -0.88900
H881        H  0.63830284  0.06299227  0.30423039     0.35200
H882        H  0.59954666  0.06060026  0.30066120     0.40300
H883        H  0.62741407  0.94543621  0.18168697     0.39900
H884        H  0.60742640  0.92209325  0.20968293     0.34800
C885        C  0.72639077  0.74378145  0.23756226    -0.26900
C886        C  0.73011238  0.76508369  0.26546574    -0.15000
C887        C  0.75994306  0.77170704  0.27738632     0.35600
C888        C  0.78555060  0.75705967  0.26112478    -0.26400
C889        C  0.78178337  0.73580834  0.23318437    -0.15600
C890        C  0.75198486  0.72924991  0.22128357     0.36700
N891        N  0.74774022  0.70841258  0.19230956    -0.89900
H892        H  0.70363500  0.73962037  0.22760154     0.17800
H893        H  0.80832924  0.76110660  0.27108230     0.17800
N894        N  0.76423455  0.79290505  0.30619384    -0.88900
H895        H  0.73676268  0.72591313  0.17580379     0.35200
H896        H  0.73300363  0.68612906  0.19731219     0.40300
H897        H  0.77819746  0.81581821  0.30076457     0.39900
H898        H  0.77600499  0.77603573  0.32264980     0.34800
C899        C  0.75531113  0.90227585  0.34106501    -0.26900
C900        C  0.72687145  0.89764057  0.35686663    -0.15000
C901        C  0.72685454  0.89516930  0.39091431     0.35600
C902        C  0.75498971  0.89499198  0.40770329    -0.26400
C903        C  0.78340121  0.89729008  0.39163264    -0.15600
C904        C  0.78331595  0.90207356  0.35797614     0.36700
N905        N  0.81165985  0.90618783  0.34065184    -0.89900
H906        H  0.75608344  0.90453135  0.31515865     0.17800
H907        H  0.75469118  0.89137545  0.43350743     0.17800
N908        N  0.69843022  0.89165986  0.40846374    -0.88900
H909        H  0.81084063  0.93164825  0.32829906     0.35200
H910        H  0.81316832  0.88464019  0.32373366     0.40300
H911        H  0.68620996  0.91675326  0.40566252     0.39900
H912        H  0.70254950  0.88869990  0.43303325     0.34800
C913        C  0.65869150  0.73566069  0.39341627    -0.26900
C914        C  0.63918590  0.76739277  0.39354068    -0.15000
C915        C  0.61955926  0.77347986  0.42006671     0.35600
C916        C  0.62007341  0.74805003  0.44574834    -0.26400
C917        C  0.63955422  0.71631439  0.44566093    -0.15600
C918        C  0.65897372  0.71000393  0.41897812     0.36700
N919        N  0.67888055  0.67770172  0.41780486    -0.89900
H920        H  0.67375164  0.73061567  0.37306213     0.17800
H921        H  0.60535083  0.75355455  0.46627090     0.17800
N922        N  0.59882952  0.80502675  0.42077365    -0.88900
H923        H  0.69194762  0.67752104  0.39667941     0.35200
H924        H  0.66486157  0.65402305  0.41701876     0.40300
H925        H  0.58659750  0.80592972  0.44242086     0.39900
H926        H  0.58251081  0.80103764  0.40273014     0.34800
C927        C  0.66428202  0.78058588  0.17717274    -0.26900
C928        C  0.63777977  0.78538660  0.19633797    -0.15000
C929        C  0.61108285  0.76413961  0.18858976     0.35600
C930        C  0.61182617  0.73898752  0.16282258    -0.26400
C931        C  0.63832429  0.73431176  0.14405131    -0.15600
C932        C  0.66475079  0.75566084  0.15121549     0.36700
N933        N  0.69268254  0.75186104  0.13302571    -0.89900
H934        H  0.68518199  0.79563238  0.18276939     0.17800
H935        H  0.59120690  0.72346010  0.15699941     0.17800
N936        N  0.58266298  0.76741950  0.20601068    -0.88900
H937        H  0.68865190  0.76065436  0.10951393     0.35200
H938        H  0.69902329  0.72357732  0.13262135     0.40300
H939        H  0.57602937  0.79559038  0.20682456     0.39900
H940        H  0.58562721  0.75700062  0.22921050     0.34800
C941        C  0.38090619  0.99358090  0.28018022    -0.26900
C942        C  0.37880242  0.96188720  0.26057272    -0.15000
C943        C  0.38006206  0.96687954  0.22671605     0.35600
C944        C  0.38012578  0.00335331  0.21357608    -0.26400
C945        C  0.37937676  0.03512992  0.23335838    -0.15600
C946        C  0.38127093  0.02982925  0.26702895     0.36700
N947        N  0.38284026  0.06130146  0.28823689    -0.89900
H948        H  0.38063686  0.99046420  0.30603482     0.17800
H949        H  0.37923828  0.00688328  0.18778416     0.17800
N950        N  0.38047627  0.93494691  0.20570056    -0.88900
H951        H  0.40293730  0.05874599  0.30182144     0.35200
H952        H  0.36399696  0.06018293  0.30390963     0.40300
H953        H  0.40098149  0.92026210  0.20988982     0.39900
H954        H  0.38105521  0.94336490  0.18168220     0.34800
C955        C  0.39833514  0.76496425  0.41379055    -0.26900
C956        C  0.37442284  0.76276879  0.39148078    -0.15000
C957        C  0.35150898  0.73523934  0.39568934     0.35600
C958        C  0.35221183  0.71161395  0.42261777    -0.26400
C959        C  0.37566706  0.71437413  0.44559650    -0.15600
C960        C  0.39948155  0.74084527  0.44039786     0.36700
N961        N  0.42484887  0.74378455  0.46212713    -0.89900
H962        H  0.41662612  0.78509214  0.41026993     0.17800
H963        H  0.33368418  0.69178415  0.42594224     0.17800
N964        N  0.32689326  0.73184670  0.37309954    -0.88900
H965        H  0.42525987  0.77110650  0.47110104     0.35200
H966        H  0.44521902  0.73919298  0.44920366     0.40300
H967        H  0.30606082  0.73579847  0.38535470     0.39900
H968        H  0.32725533  0.70455971  0.36403057     0.34800
C969        C  0.39391647  0.75769759  0.19217718    -0.26900
C970        C  0.37263224  0.78759557  0.19412930    -0.15000
C971        C  0.35191896  0.79322026  0.16861810     0.35600
C972        C  0.35233597  0.76861471  0.14238494    -0.26400
C973        C  0.37287717  0.73796395  0.14105667    -0.15600
C974        C  0.39422249  0.73284232  0.16610128     0.36700
N975        N  0.41624841  0.70261827  0.16501799    -0.89900
H976        H  0.40993760  0.75280414  0.21160284     0.17800
H977        H  0.33609728  0.77329968  0.12309324     0.17800
N978        N  0.33023427  0.82360190  0.16924892    -0.88900
H979        H  0.42979865  0.70230342  0.18569550     0.35200
H980        H  0.43120813  0.70770539  0.14580659     0.40300
H981        H  0.30807875  0.81242171  0.16774830     0.39900
H982        H  0.33396246  0.84013676  0.14891800     0.34800
C983        C  0.48957093  0.80119515  0.29902437    -0.26900
C984        C  0.47283314  0.83116626  0.31250712    -0.15000
C985        C  0.48938603  0.86080932  0.32679255     0.35600
C986        C  0.52171020  0.86030969  0.32664986    -0.26400
C987        C  0.53846944  0.83059909  0.31287661    -0.15600
C988        C  0.52199638  0.80065932  0.29901521     0.36700
N989        N  0.53794932  0.76989823  0.28428922    -0.89900
H990        H  0.47749057  0.77812094  0.28797997     0.17800
H991        H  0.53371788  0.88338294  0.33779030     0.17800
N992        N  0.47361847  0.89136345  0.34207336    -0.88900
H993        H  0.53104388  0.76832487  0.26033112     0.35200
H994        H  0.53113176  0.74528475  0.29580870     0.40300
H995        H  0.48045845  0.91619070  0.33090801     0.39900
H996        H  0.48060306  0.89239044  0.36603144     0.34800
C997        C  0.22712908  0.74969035  0.26681610    -0.26900
C998        C  0.22828416  0.73753124  0.23488634    -0.15000
C999        C  0.25650933  0.73812249  0.21794594     0.35600
C1000       C  0.28304837  0.75047276  0.23338684    -0.26400
C1001       C  0.28194846  0.76236770  0.26543524    -0.15600
C1002       C  0.25361048  0.76212105  0.28224289     0.36700
N1003       N  0.25125463  0.77333355  0.31518050    -0.89900
H1004       H  0.20572905  0.74819466  0.28023304     0.17800
H1005       H  0.30440319  0.75220200  0.21988315     0.17800
N1006       N  0.25862380  0.72745371  0.18486122    -0.88900
H1007       H  0.25659636  0.80169128  0.31717438     0.35200
H1008       H  0.26714943  0.75774724  0.32851881     0.40300
H1009       H  0.24288907  0.74363935  0.17183891     0.39900
H1010       H  0.25263585  0.69931850  0.18258504     0.34800
C1011       C  0.25455017  0.88927782  0.40951539    -0.26900
C1012       C  0.22639203  0.89439951  0.39357091    -0.15000
C1013       C  0.22690064  0.90112678  0.36023904     0.35600
C1014       C  0.25502885  0.90061034  0.34334335    -0.26400
C1015       C  0.28316728  0.89311626  0.35885465    -0.15600
C1016       C  0.28282284  0.88844479  0.39272302     0.36700
N1017       N  0.31092319  0.88169815  0.41000777    -0.89900
H1018       H  0.25444432  0.88422660  0.43514062     0.17800
H1019       H  0.25454464  0.90471598  0.31760359     0.17800
N1020       N  0.19883893  0.90816608  0.34326547    -0.88900
H1021       H  0.30648747  0.87760874  0.43442122     0.35200
H1022       H  0.32415313  0.90598371  0.40836907     0.40300
H1023       H  0.19673594  0.88786249  0.32535881     0.39900
H1024       H  0.20059778  0.93429722  0.33212711     0.34800
Fe1025     Fe  0.37809824  0.87304843  0.83313699     1.65800
Fe1026     Fe  0.33046168  0.86284791  0.77086340     1.73200
Fe1027     Fe  0.37696021  0.79240093  0.79150314     1.54400
O1028       O  0.42222457  0.80474689  0.80470143    -0.82300
O1029       O  0.30161318  0.82172915  0.78509721    -0.80600
O1030       O  0.42263268  0.86508159  0.81763648    -0.84800
O1031       O  0.38148630  0.82655268  0.86483944    -0.79700
O1032       O  0.38871465  0.80542229  0.74564828    -0.81400
O1033       O  0.31025513  0.89661010  0.80628367    -0.84200
C1034       C  0.37291568  0.79228742  0.86311425     0.96600
C1035       C  0.43670374  0.83487850  0.81074669     1.04000
O1036       O  0.36214462  0.84285654  0.79866969    -1.13200
O1037       O  0.35880243  0.90487908  0.75643668    -0.75600
O1038       O  0.37661793  0.92240402  0.80426069    -0.79100
O1039       O  0.36583969  0.77693687  0.83686556    -0.79800
C1040       C  0.37182384  0.92872346  0.77428088     0.95500
O1041       O  0.33430310  0.88186392  0.85129372    -0.77700
O1042       O  0.34424554  0.83008461  0.73117503    -0.82900
C1043       C  0.30634288  0.78784939  0.77802350     0.98100
C1044       C  0.36794036  0.81005987  0.72491533     1.04000
O1045       O  0.33341594  0.77369630  0.77666877    -0.78600
C1046       C  0.31047135  0.89331696  0.83670270     1.02300
Fe1047     Fe  0.62885766  0.86932402  0.83444959     1.65800
Fe1048     Fe  0.67715286  0.85972102  0.77226950     1.73200
Fe1049     Fe  0.63144434  0.78892484  0.79283260     1.54400
O1050       O  0.64376129  0.77354063  0.83791448    -0.82300
O1051       O  0.66229040  0.82836726  0.73207545    -0.80600
O1052       O  0.62540618  0.82240230  0.86547384    -0.84800
O1053       O  0.58476204  0.86166031  0.81823795    -0.79700
O1054       O  0.67478214  0.77024768  0.77639353    -0.81400
O1055       O  0.64917528  0.90293853  0.75885316    -0.84200
C1056       C  0.57118966  0.83109937  0.81211237     0.96600
C1057       C  0.63514986  0.78846577  0.86398820     1.04000
O1058       O  0.64551384  0.83952459  0.79987691    -1.13200
O1059       O  0.69792455  0.89148305  0.80873168    -0.75600
O1060       O  0.67217581  0.87725114  0.85294538    -0.79100
O1061       O  0.58617814  0.80078869  0.80735453    -0.79800
C1062       C  0.69660380  0.88816705  0.83921141     0.95500
O1063       O  0.63048882  0.91957806  0.80669379    -0.77700
O1064       O  0.70609616  0.81791457  0.78520932    -0.82900
C1065       C  0.63860508  0.80842029  0.72603545     0.98100
C1066       C  0.70172408  0.78429698  0.77744200     1.04000
O1067       O  0.61867041  0.80229504  0.74743140    -0.78600
C1068       C  0.63587800  0.92658447  0.77693495     1.02300
Fe1069     Fe  0.63289323  0.63200257  0.58476483     1.65800
Fe1070     Fe  0.67871918  0.64054935  0.52060326     1.73200
Fe1071     Fe  0.63329401  0.71190112  0.54208470     1.54400
O1072       O  0.58783456  0.69948201  0.55566949    -0.82300
O1073       O  0.70871858  0.68088084  0.53361693    -0.80600
O1074       O  0.58786223  0.63970737  0.57064319    -0.84800
O1075       O  0.63004112  0.67861754  0.61595403    -0.79700
O1076       O  0.61916714  0.69842005  0.99757590    -0.81400
O1077       O  0.69892726  0.60623535  0.55534908    -0.84200
C1078       C  0.63796926  0.71298733  0.61371670     0.96600
C1079       C  0.57356528  0.66928939  0.56244552     1.04000
O1080       O  0.64808717  0.66159453  0.54945074    -1.13200
O1081       O  0.64879886  0.59960449  0.50757673    -0.75600
O1082       O  0.63360962  0.58242005  0.55660448    -0.79100
O1083       O  0.64444197  0.72837211  0.58725017    -0.79800
C1084       C  0.63673436  0.57590883  0.52644781     0.95500
O1085       O  0.67740013  0.62352426  0.60114427    -0.77700
O1086       O  0.66249177  0.67135335  0.98198080    -0.82900
C1087       C  0.70423343  0.71502184  0.52712058     0.98100
C1088       C  0.63912963  0.69205402  0.97611278     1.04000
O1089       O  0.67725196  0.72974457  0.52668574    -0.78600
C1090       C  0.70040749  0.61092605  0.58552575     1.02300
Fe1091     Fe  0.38024413  0.63144815  0.58494864     1.65800
Fe1092     Fe  0.33344040  0.64173319  0.52197029     1.73200
Fe1093     Fe  0.37812771  0.71229872  0.54398393     1.54400
O1094       O  0.36472512  0.72647219  0.58901975    -0.82300
O1095       O  0.34874219  0.67329709  0.97952901    -0.80600
O1096       O  0.38345239  0.67773284  0.61632065    -0.84800
O1097       O  0.42512270  0.63931650  0.56928731    -0.79700
O1098       O  0.33495544  0.73092336  0.52761031    -0.81400
O1099       O  0.36215607  0.59925423  0.50850467    -0.84200
C1100       C  0.43851393  0.67021615  0.56333252     0.96600
C1101       C  0.37311479  0.71134211  0.61497085     1.04000
O1102       O  0.36436713  0.66158382  0.55024687    -1.13200
O1103       O  0.31257803  0.60890701  0.55754199    -0.75600
O1104       O  0.33607825  0.62363595  0.60275154    -0.79100
O1105       O  0.42317509  0.70026343  0.55868657    -0.79800
C1106       C  0.31218357  0.61294193  0.58791046     0.95500
O1107       O  0.37853704  0.58176912  0.55692351    -0.77700
O1108       O  0.30382643  0.68274113  0.53542597    -0.82900
C1109       C  0.37211305  0.69416181  0.97436129     0.98100
C1110       C  0.30809416  0.71665930  0.52861768     1.04000
O1111       O  0.39158242  0.69964465  0.99616699    -0.78600
C1112       C  0.37386190  0.57497469  0.52708781     1.02300
Fe1113     Fe  0.12871067  0.87049657  0.91399407     1.65800
Fe1114     Fe  0.17645981  0.86211793  0.97655269     1.73200
Fe1115     Fe  0.13157422  0.79033357  0.95633186     1.54400
O1116       O  0.08615588  0.80176753  0.94246959    -0.82300
O1117       O  0.20605715  0.82075250  0.96388559    -0.80600
O1118       O  0.08408111  0.86212534  0.92907437    -0.84800
O1119       O  0.12602042  0.82408099  0.88308969    -0.79700
O1120       O  0.11939769  0.80254928  0.50322127    -0.81400
O1121       O  0.19720038  0.89444811  0.94044466    -0.84200
C1122       C  0.13578730  0.79032677  0.88478104     0.96600
C1123       C  0.07092319  0.83141032  0.93584795     1.04000
O1124       O  0.14517380  0.84113099  0.94898476    -1.13200
O1125       O  0.14753876  0.90461531  0.98963079    -0.75600
O1126       O  0.12942415  0.92030324  0.94143057    -0.79100
O1127       O  0.14375326  0.77506145  0.91088562    -0.79800
C1128       C  0.13445437  0.92780944  0.97101242     0.95500
O1129       O  0.17243225  0.87915300  0.89616168    -0.77700
O1130       O  0.16266969  0.82937687  0.51778395    -0.82900
C1131       C  0.20179241  0.78695578  0.97132734     0.98100
C1132       C  0.13956887  0.80886732  0.52423189     1.04000
O1133       O  0.17506313  0.77236605  0.97217152    -0.78600
C1134       C  0.19647309  0.89078084  0.91004808     1.02300
Fe1135     Fe  0.87807516  0.86821228  0.91257359     1.65800
Fe1136     Fe  0.83309291  0.85935004  0.97724140     1.73200
Fe1137     Fe  0.87736234  0.78753961  0.95401485     1.54400
O1138       O  0.86410108  0.77284153  0.90907868    -0.82300
O1139       O  0.84808756  0.82993419  0.51588461    -0.80600
O1140       O  0.88119904  0.82181752  0.88127748    -0.84800
O1141       O  0.92296921  0.86044931  0.92640086    -0.79700
O1142       O  0.83396773  0.76975731  0.97111865    -0.81400
O1143       O  0.86268906  0.90103366  0.98968872    -0.84200
C1144       C  0.93690248  0.82985655  0.93230385     0.96600
C1145       C  0.87221070  0.78782226  0.88293209     1.04000
O1146       O  0.86321657  0.83842052  0.94793415    -1.13200
O1147       O  0.81141609  0.89266152  0.94226921    -0.75600
O1148       O  0.83375781  0.87620106  0.89649454    -0.79100
O1149       O  0.92242847  0.79966607  0.93866435    -0.79800
C1150       C  0.81056063  0.88846188  0.91188702     0.95500
O1151       O  0.87688824  0.91800063  0.94042393    -0.77700
O1152       O  0.80294694  0.81902512  0.96511191    -0.82900
C1153       C  0.87133875  0.80901587  0.52176293     0.98100
C1154       C  0.80717940  0.78489672  0.97150681     1.04000
O1155       O  0.89163383  0.80334208  0.50050010    -0.78600
C1156       C  0.87369088  0.92505349  0.97045441     1.02300
Fe1157     Fe  0.88098758  0.63028035  0.66282134     1.65800
Fe1158     Fe  0.83283676  0.63910090  0.72511892     1.73200
Fe1159     Fe  0.87730813  0.71077514  0.70424525     1.54400
O1160       O  0.92290686  0.69934583  0.69067391    -0.82300
O1161       O  0.80296829  0.67973410  0.71165413    -0.80600
O1162       O  0.92492190  0.63850839  0.67933962    -0.84800
O1163       O  0.88460918  0.67673499  0.63148861    -0.79700
O1164       O  0.88965083  0.69833077  0.75007315    -0.81400
O1165       O  0.81346691  0.60578791  0.68917248    -0.84200
C1166       C  0.87448586  0.71046240  0.63272903     0.96600
C1167       C  0.93811172  0.66908984  0.68621034     1.04000
O1168       O  0.86401503  0.65997248  0.69733482    -1.13200
O1169       O  0.86204020  0.59746940  0.73901941    -0.75600
O1170       O  0.87949770  0.58056279  0.69075123    -0.79100
O1171       O  0.86550529  0.72543612  0.65868706    -0.79800
C1172       C  0.87493645  0.57383145  0.72065646     0.95500
O1173       O  0.83754532  0.62170844  0.64438314    -0.77700
O1174       O  0.84633104  0.67123081  0.76502720    -0.82900
C1175       C  0.80674993  0.71352505  0.71931673     0.98100
C1176       C  0.86963402  0.69151326  0.77133484     1.04000
O1177       O  0.83341310  0.72844407  0.71998763    -0.78600
C1178       C  0.81371885  0.60982321  0.65880738     1.02300
Fe1179     Fe  0.13034412  0.63184208  0.66531250     1.65800
Fe1180     Fe  0.17653022  0.64088582  0.72879815     1.73200
Fe1181     Fe  0.13234291  0.71280077  0.70610726     1.54400
O1182       O  0.14550596  0.72651668  0.66093811    -0.82300
O1183       O  0.16142364  0.67340435  0.76804326    -0.80600
O1184       O  0.12708412  0.67788367  0.63375236    -0.84800
O1185       O  0.08573164  0.64054263  0.68042469    -0.79700
O1186       O  0.17557040  0.73053447  0.72233645    -0.81400
O1187       O  0.14710613  0.59923047  0.74191609    -0.84200
C1188       C  0.07225218  0.67149307  0.68643726     0.96600
C1189       C  0.13677960  0.71157200  0.63509360     1.04000
O1190       O  0.14601767  0.66172672  0.70013452    -1.13200
O1191       O  0.19756495  0.60748247  0.69349227    -0.75600
O1192       O  0.17461513  0.62344997  0.64826618    -0.79100
O1193       O  0.08726822  0.70146253  0.69155147    -0.79800
C1194       C  0.19838603  0.61223088  0.66322570     0.95500
O1195       O  0.13118990  0.58224477  0.69333019    -0.77700
O1196       O  0.20672801  0.68141528  0.71625865    -0.82900
C1197       C  0.13815106  0.69455624  0.77346949     0.98100
C1198       C  0.20235236  0.71561923  0.72233506     1.04000
O1199       O  0.11878242  0.70165827  0.75177000    -0.78600
C1200       C  0.13476630  0.57562246  0.72334843     1.02300
Fe1201     Fe  0.62961616  0.37287807  0.90926200     1.65800
Fe1202     Fe  0.67468616  0.36212736  0.97356699     1.73200
Fe1203     Fe  0.63069517  0.29139971  0.95018781     1.54400
O1204       O  0.58555025  0.30427617  0.93605220    -0.82300
O1205       O  0.70532228  0.32168761  0.96110327    -0.80600
O1206       O  0.58477929  0.36481291  0.92335291    -0.84800
O1207       O  0.62713443  0.32704032  0.87727091    -0.79700
O1208       O  0.61711703  0.30228951  0.49724814    -0.81400
O1209       O  0.69587885  0.39619413  0.93902240    -0.84200
C1210       C  0.63611014  0.29289137  0.87893830     0.96600
C1211       C  0.57090747  0.33469584  0.93040688     1.04000
O1212       O  0.64470967  0.34214069  0.94420339    -1.13200
O1213       O  0.64454447  0.40329228  0.98646425    -0.75600
O1214       O  0.63003040  0.42229452  0.93789684    -0.79100
O1215       O  0.64355927  0.27748026  0.90504998    -0.79800
C1216       C  0.63319374  0.42806286  0.96811808     0.95500
O1217       O  0.67397803  0.38136628  0.89293055    -0.77700
O1218       O  0.65903207  0.33101544  0.51419981    -0.82900
C1219       C  0.70108093  0.28737896  0.96684294     0.98100
C1220       C  0.63626167  0.30924858  0.51919691     1.04000
O1221       O  0.67428448  0.27277613  0.96587851    -0.78600
C1222       C  0.69713470  0.39260521  0.90863498     1.02300
Fe1223     Fe  0.37809779  0.37103405  0.91324645     1.65800
Fe1224     Fe  0.33061968  0.36240324  0.97615425     1.73200
Fe1225     Fe  0.37630252  0.29095762  0.95541541     1.54400
O1226       O  0.36461275  0.27524534  0.91019101    -0.82300
O1227       O  0.34738401  0.32995225  0.51410176    -0.80600
O1228       O  0.38135387  0.32442038  0.88221131    -0.84800
O1229       O  0.42256212  0.36301968  0.92844535    -0.79700
O1230       O  0.33268202  0.27315336  0.97115808    -0.81400
O1231       O  0.35955307  0.40425314  0.98946479    -0.84200
C1232       C  0.43639344  0.33255685  0.93502645     0.96600
C1233       C  0.37233339  0.29041813  0.88396388     1.04000
O1234       O  0.36197930  0.34153934  0.94816793    -1.13200
O1235       O  0.31009809  0.39552514  0.94026613    -0.75600
O1236       O  0.33437774  0.37955257  0.89554733    -0.79100
O1237       O  0.42165915  0.30263216  0.94132925    -0.79800
C1238       C  0.31047395  0.39156466  0.90985296     0.95500
O1239       O  0.37682798  0.42077218  0.94106531    -0.77700
O1240       O  0.30129708  0.32161912  0.96292944    -0.82900
C1241       C  0.37099340  0.30946039  0.51948799     0.98100
C1242       C  0.30575492  0.28774012  0.97010920     1.04000
O1243       O  0.39072031  0.30316627  0.49776374    -0.78600
C1244       C  0.37238585  0.42770638  0.97094653     1.02300
Fe1245     Fe  0.37916308  0.13366248  0.66151997     1.65800
Fe1246     Fe  0.33157491  0.14305208  0.72427571     1.73200
Fe1247     Fe  0.37706635  0.21416583  0.70370009     1.54400
O1248       O  0.42267317  0.20170446  0.69100630    -0.82300
O1249       O  0.30189214  0.18411384  0.71065200    -0.80600
O1250       O  0.42365617  0.14161294  0.67670914    -0.84800
O1251       O  0.38244017  0.17980089  0.63025116    -0.79700
O1252       O  0.38822807  0.20180014  0.74990825    -0.81400
O1253       O  0.31204892  0.10944604  0.68880677    -0.84200
C1254       C  0.37411389  0.21414985  0.63188502     0.96600
C1255       C  0.43736272  0.17155540  0.68459417     1.04000
O1256       O  0.36299283  0.16360596  0.69641883    -1.13200
O1257       O  0.36073827  0.10104767  0.73794984    -0.75600
O1258       O  0.37786246  0.08392263  0.68955114    -0.79100
O1259       O  0.36662407  0.22964708  0.65809094    -0.79800
C1260       C  0.37331050  0.07716404  0.71947023     0.95500
O1261       O  0.33533821  0.12552493  0.64372366    -0.77700
O1262       O  0.34462242  0.17530768  0.76425828    -0.82900
C1263       C  0.30626423  0.21813837  0.71736703     0.98100
C1264       C  0.36764222  0.19587015  0.77077629     1.04000
O1265       O  0.33310866  0.23253886  0.71817928    -0.78600
C1266       C  0.31173765  0.11367533  0.65852039     1.02300
Fe1267     Fe  0.62933846  0.13164384  0.66256376     1.65800
Fe1268     Fe  0.67783173  0.14057044  0.72428013     1.73200
Fe1269     Fe  0.63207618  0.21203133  0.70354819     1.54400
O1270       O  0.64374836  0.22757916  0.65820698    -0.82300
O1271       O  0.66359486  0.17268956  0.76416578    -0.80600
O1272       O  0.62633232  0.17845245  0.63105360    -0.84800
O1273       O  0.58498434  0.14060713  0.67852228    -0.79700
O1274       O  0.67549039  0.22968443  0.71901144    -0.81400
O1275       O  0.64962006  0.09843126  0.73857616    -0.84200
C1276       C  0.57164729  0.17163374  0.68446005     0.96600
C1277       C  0.63530972  0.21262984  0.63217558     1.04000
O1278       O  0.64615503  0.16126362  0.69668264    -1.13200
O1279       O  0.69817754  0.10757010  0.68827611    -0.75600
O1280       O  0.67278676  0.12266882  0.64423584    -0.79100
O1281       O  0.58684068  0.20133665  0.68976175    -0.79800
C1282       C  0.69713853  0.11136231  0.65789899     0.95500
O1283       O  0.63059015  0.08178295  0.69109859    -0.77700
O1284       O  0.70690420  0.18154947  0.71061354    -0.82900
C1285       C  0.63983092  0.19274916  0.77018046     0.98100
C1286       C  0.70240791  0.21524727  0.71842795     1.04000
O1287       O  0.61961286  0.19833199  0.74902106    -0.78600
C1288       C  0.63612726  0.07492229  0.72086405     1.02300
Fe1289     Fe  0.87862277  0.36855911  0.83246974     1.65800
Fe1290     Fe  0.83230746  0.36042817  0.76886565     1.73200
Fe1291     Fe  0.87813868  0.28934596  0.78884300     1.54400
O1292       O  0.92276382  0.30071797  0.80377382    -0.82300
O1293       O  0.80353721  0.31891903  0.78145492    -0.80600
O1294       O  0.92357460  0.36066813  0.81806487    -0.84800
O1295       O  0.88091814  0.32092073  0.86282557    -0.79700
O1296       O  0.89130897  0.30468285  0.74387901    -0.81400
O1297       O  0.81103149  0.39295294  0.80463443    -0.84200
C1298       C  0.87239803  0.28671924  0.86018638     0.96600
C1299       C  0.93733596  0.33040683  0.81060406     1.04000
O1300       O  0.86328595  0.33956041  0.79697546    -1.13200
O1301       O  0.86082812  0.40266171  0.75642830    -0.75600
O1302       O  0.87815981  0.41881476  0.80480593    -0.79100
O1303       O  0.86565378  0.27207001  0.83350916    -0.79800
C1304       C  0.87383382  0.42581740  0.77487298     0.95500
O1305       O  0.83448399  0.37744975  0.84974679    -0.77700
O1306       O  0.84716184  0.32916733  0.72837201    -0.82900
C1307       C  0.80832546  0.28548647  0.77298242     0.98100
C1308       C  0.87124068  0.30956848  0.72249385     1.04000
O1309       O  0.83532625  0.27129620  0.77201272    -0.78600
C1310       C  0.81090612  0.38959007  0.83504795     1.02300
Fe1311     Fe  0.12883056  0.37057121  0.83425207     1.65800
Fe1312     Fe  0.17601934  0.36143008  0.77117045     1.73200
Fe1313     Fe  0.13090409  0.29020132  0.79181391     1.54400
O1314       O  0.14260022  0.27461721  0.83713305    -0.82300
O1315       O  0.16179554  0.32962882  0.73115752    -0.80600
O1316       O  0.12584771  0.32403544  0.86506881    -0.84800
O1317       O  0.08430742  0.36253613  0.81946339    -0.79700
O1318       O  0.17444001  0.27201626  0.77541984    -0.81400
O1319       O  0.14708571  0.40372799  0.75807271    -0.84200
C1320       C  0.07091954  0.33201677  0.81281126     0.96600
C1321       C  0.13432205  0.28973051  0.86329743     1.04000
O1322       O  0.14486499  0.34083991  0.79917021    -1.13200
O1323       O  0.19664627  0.39417991  0.80685657    -0.75600
O1324       O  0.17263447  0.37910402  0.85190884    -0.79100
O1325       O  0.08575453  0.30211022  0.80607923    -0.79800
C1326       C  0.19638122  0.39079902  0.83730138     0.95500
O1327       O  0.12963696  0.42035217  0.80645442    -0.77700
O1328       O  0.20541096  0.32017079  0.78420178    -0.82900
C1329       C  0.13843230  0.30937840  0.72491861     0.98100
C1330       C  0.20120463  0.28661953  0.77607938     1.04000
O1331       O  0.11826681  0.30320881  0.74615969    -0.78600
C1332       C  0.13406873  0.42720108  0.77655503     1.02300
Fe1333     Fe  0.13055034  0.13063935  0.58462376     1.65800
Fe1334     Fe  0.17601560  0.13932360  0.51991878     1.73200
Fe1335     Fe  0.13181371  0.21098725  0.54307505     1.54400
O1336       O  0.08677180  0.19892981  0.55823088    -0.82300
O1337       O  0.20655863  0.17965379  0.53163761    -0.80600
O1338       O  0.08568928  0.13817359  0.57014903    -0.84800
O1339       O  0.12691668  0.17713976  0.61582546    -0.79700
O1340       O  0.11715376  0.20192446  0.99805234    -0.81400
O1341       O  0.19710003  0.10610531  0.55523638    -0.84200
C1342       C  0.13615738  0.21103093  0.61420895     0.96600
C1343       C  0.07194587  0.16889874  0.56410661     1.04000
O1344       O  0.14586183  0.16027359  0.54925262    -1.13200
O1345       O  0.14627023  0.09779092  0.50784440    -0.75600
O1346       O  0.13216346  0.08077271  0.55717348    -0.79100
O1347       O  0.14480465  0.22570736  0.58811226    -0.79800
C1348       C  0.13543654  0.07377684  0.52717902     0.95500
O1349       O  0.17483678  0.12291117  0.60097627    -0.77700
O1350       O  0.15942786  0.17341440  0.98078868    -0.82900
C1351       C  0.20213570  0.21395147  0.52590613     0.98100
C1352       C  0.13623645  0.19473804  0.97589232     1.04000
O1353       O  0.17524237  0.22878817  0.52633198    -0.78600
C1354       C  0.19816017  0.11097545  0.58551417     1.02300
Fe1355     Fe  0.87839632  0.13256884  0.58237775     1.65800
Fe1356     Fe  0.83247868  0.14012788  0.51842196     1.73200
Fe1357     Fe  0.87823843  0.21097973  0.53774102     1.54400
O1358       O  0.86638061  0.22912814  0.58245854    -0.82300
O1359       O  0.84746947  0.17021224  0.97804002    -0.80600
O1360       O  0.88119942  0.18028903  0.61214730    -0.84800
O1361       O  0.92330370  0.13871303  0.56790680    -0.79700
O1362       O  0.83480638  0.22941833  0.52118769    -0.81400
O1363       O  0.86163648  0.09782777  0.50648566    -0.84200
C1364       C  0.93755936  0.16822842  0.56005185     0.96600
C1365       C  0.87299105  0.21465604  0.60929757     1.04000
O1366       O  0.86324850  0.16125276  0.54643688    -1.13200
O1367       O  0.81157732  0.10819970  0.55454739    -0.75600
O1368       O  0.83431144  0.12532643  0.59961488    -0.82300
O1369       O  0.92332144  0.19832310  0.55242902    -0.79800
C1370       C  0.81113900  0.11268487  0.58486297     0.95500
O1371       O  0.87736043  0.08212776  0.55562005    -0.77700
O1372       O  0.80312970  0.18189319  0.53020373    -0.82900
C1373       C  0.87138954  0.18969145  0.97176946     0.98100
C1374       C  0.80777255  0.21538116  0.52188064     1.04000
O1375       O  0.89139471  0.19531837  0.99305759    -0.78600
C1376       C  0.87352996  0.07453848  0.52580507     1.02300
C1377       C  0.02162589  0.13533075  0.56107410    -0.26900
C1378       C  0.03749127  0.16942218  0.56366276    -0.15000
C1379       C  0.02015180  0.20308969  0.56528347     0.35600
C1380       C  0.98778534  0.20187814  0.56332921    -0.26400
C1381       C  0.97196560  0.16783782  0.56056898    -0.15600
C1382       C  0.98926816  0.13408310  0.55937136     0.36700
N1383       N  0.97411283  0.09860447  0.55597844    -0.89900
H1384       H  0.03456081  0.10934044  0.55975150     0.17800
H1385       H  0.97477632  0.22780527  0.56475696     0.17800
N1386       N  0.03527035  0.23843575  0.56946926    -0.88900
H1387       H  0.99008659  0.07657707  0.55623737     0.35200
H1388       H  0.96377371  0.09819859  0.53336910     0.40300
H1389       H  0.04537816  0.23824803  0.59218828     0.39900
H1390       H  0.01927075  0.26043682  0.56952327     0.34800
C1391       C  0.11199484  0.26257882  0.69021638    -0.26900
C1392       C  0.13642741  0.28805251  0.69416216    -0.15000
C1393       C  0.16054256  0.28796810  0.67119693     0.35600
C1394       C  0.16018031  0.26175766  0.64600325    -0.26400
C1395       C  0.13639175  0.23546414  0.64297067    -0.15600
C1396       C  0.11181934  0.23639639  0.66523435     0.36700
N1397       N  0.08605989  0.21168555  0.66281761    -0.89900
H1398       H  0.09311733  0.26205939  0.70729211     0.17800
H1399       H  0.17876915  0.26175417  0.62856414     0.17800
N1400       N  0.18566142  0.31382217  0.67372752    -0.88900
H1401       H  0.09395506  0.18414090  0.66519890     0.35200
H1402       H  0.07612792  0.21496947  0.64018218     0.40300
H1403       H  0.17671299  0.34069511  0.66992950     0.39900
H1404       H  0.20193269  0.30911849  0.65558579     0.34800
C1405       C  0.11293819  0.24654026  0.94380365    -0.26900
C1406       C  0.13345184  0.21580656  0.94524669    -0.15000
C1407       C  0.15373179  0.20953236  0.91926577     0.35600
C1408       C  0.15377821  0.23427395  0.89319052    -0.26400
C1409       C  0.13396693  0.26555097  0.89221162    -0.15600
C1410       C  0.11290939  0.27136829  0.91762741     0.36700
N1411       N  0.09141196  0.30215538  0.91674919    -0.89900
H1412       H  0.09726685  0.25193674  0.96357454     0.17800
H1413       H  0.16978334  0.22907778  0.87364734     0.17800
N1414       N  0.17462733  0.17833993  0.91924862    -0.88900
H1415       H  0.07793169  0.30281815  0.93758628     0.35200
H1416       H  0.07630594  0.29743384  0.89771529     0.40300
H1417       H  0.19705368  0.18866182  0.91737183     0.39900
H1418       H  0.17023644  0.16214411  0.89890666     0.34800
C1419       C  0.89333695  0.23316099  0.66262362    -0.26900
C1420       C  0.87229279  0.23950627  0.63786726    -0.15000
C1421       C  0.85225185  0.27082223  0.63995077     0.35600
C1422       C  0.85319122  0.29445738  0.66692045    -0.26400
C1423       C  0.87404238  0.28785116  0.69201354    -0.15600
C1424       C  0.89459987  0.25690453  0.68935988     0.36700
N1425       N  0.91640751  0.24859594  0.71411018    -0.89900
H1426       H  0.90925605  0.20972121  0.66114436     0.17800
H1427       H  0.83699158  0.31759062  0.66848856     0.17800
N1428       N  0.83025589  0.27819795  0.61517224    -0.88900
H1429       H  0.93847381  0.24869731  0.70395964     0.35200
H1430       H  0.91203510  0.22163418  0.72269822     0.40300
H1431       H  0.83429844  0.30507390  0.60621703     0.39900
H1432       H  0.80824781  0.27799273  0.62545773     0.34800
C1433       C  0.84936558  0.21020251  0.91906893    -0.26900
C1434       C  0.87391476  0.21090523  0.94096742    -0.15000
C1435       C  0.89818878  0.23666684  0.93548491     0.35600
C1436       C  0.89656679  0.26203666  0.90981546    -0.26400
C1437       C  0.87170277  0.26185100  0.88862064    -0.15600
C1438       C  0.84820070  0.23513375  0.89296765     0.36700
N1439       N  0.82257668  0.23397841  0.87144653    -0.89900
H1440       H  0.83037465  0.19111032  0.92272408     0.17800
H1441       H  0.91529917  0.28149880  0.90604091     0.17800
N1442       N  0.92456962  0.23761414  0.95600935    -0.88900
H1443       H  0.80242258  0.23828285  0.88480408     0.35200
H1444       H  0.82167021  0.20715684  0.86147425     0.40300
H1445       H  0.92611328  0.26445785  0.96584500     0.39900
H1446       H  0.94421363  0.23286770  0.94195422     0.34800
C1447       C  0.98698596  0.35381794  0.83183284    -0.26900
C1448       C  0.97154631  0.32968413  0.81080007    -0.15000
C1449       C  0.98925072  0.30589199  0.79052177     0.35600
C1450       C  0.02147349  0.30691620  0.79178743    -0.26400
C1451       C  0.03678714  0.33119832  0.81276238    -0.15600
C1452       C  0.01923148  0.35453730  0.83319463     0.36700
N1453       N  0.03399719  0.37831223  0.85605260    -0.89900
H1454       H  0.97395393  0.37191442  0.84782103     0.17800
H1455       H  0.03464829  0.28895645  0.77580820     0.17800
N1456       N  0.97540393  0.28133028  0.76763617    -0.88900
H1457       H  0.02622667  0.37089931  0.87895101     0.35200
H1458       H  0.02704696  0.40589430  0.85158956     0.40300
H1459       H  0.96085156  0.29702954  0.75282937     0.39900
H1460       H  0.96257157  0.26114645  0.77982712     0.34800
C1461       C  0.75388473  0.09779437  0.65347730    -0.26900
C1462       C  0.72556449  0.10454985  0.63806069    -0.15000
C1463       C  0.72568426  0.10915663  0.60419562     0.35600
C1464       C  0.75384385  0.10928434  0.58729528    -0.26400
C1465       C  0.78215663  0.10516509  0.60308628    -0.15600
C1466       C  0.78195854  0.09816845  0.63642414     0.36700
N1467       N  0.81024075  0.09192681  0.65323793    -0.89900
H1468       H  0.75452437  0.09378468  0.67922770     0.17800
H1469       H  0.75367936  0.11456370  0.56170014     0.17800
N1470       N  0.69741728  0.11519007  0.58701908    -0.88900
H1471       H  0.80907287  0.06571014  0.66432002     0.35200
H1472       H  0.81201535  0.11222559  0.67119186     0.40300
H1473       H  0.68468335  0.09050360  0.58853783     0.39900
H1474       H  0.70168602  0.11976825  0.56263166     0.34800
C1475       C  0.75876135  0.22321274  0.72190902    -0.26900
C1476       C  0.72912933  0.23603523  0.73048608    -0.15000
C1477       C  0.72608349  0.26400415  0.75433512     0.35600
C1478       C  0.75224145  0.27758004  0.76932219    -0.26400
C1479       C  0.78177440  0.26483026  0.76072364    -0.15600
C1480       C  0.78504945  0.23745410  0.73664487     0.36700
N1481       N  0.81489415  0.22482072  0.72634810    -0.89900
H1482       H  0.76160847  0.20172811  0.70375355     0.17800
H1483       H  0.74938028  0.29902425  0.78752036     0.17800
N1484       N  0.69693361  0.27892580  0.76441109    -0.88900
H1485       H  0.81709691  0.23034495  0.70181394     0.35200
H1486       H  0.81606410  0.19582288  0.72958187     0.40300
H1487       H  0.68350064  0.25715124  0.77326984     0.39900
H1488       H  0.68603823  0.29119644  0.74469759     0.34800
C1489       C  0.48769617  0.20561795  0.68414777    -0.26900
C1490       C  0.47173144  0.17150391  0.68587106    -0.15000
C1491       C  0.48890836  0.13779669  0.68809468     0.35600
C1492       C  0.52122961  0.13893439  0.68750786    -0.26400
C1493       C  0.53726832  0.17286588  0.68517017    -0.15600
C1494       C  0.52015679  0.20674162  0.68351612     0.36700
N1495       N  0.53556711  0.24211333  0.68057268    -0.89900
H1496       H  0.47479604  0.23159451  0.68241890     0.17800
H1497       H  0.53399639  0.11286796  0.68925988     0.17800
N1498       N  0.47360833  0.10238373  0.69130027    -0.88900
H1499       H  0.51965434  0.26420919  0.68052484     0.35200
H1500       H  0.54649019  0.24255955  0.65817232     0.40300
H1501       H  0.46234761  0.10230424  0.71352345     0.39900
H1502       H  0.48954699  0.08032909  0.69185534     0.34800
C1503       C  0.22674298  0.10197880  0.63706051    -0.26900
C1504       C  0.22752768  0.10428999  0.60338007    -0.15000
C1505       C  0.25659801  0.10484623  0.58795568     0.35600
C1506       C  0.28376030  0.10593184  0.60629754    -0.26400
C1507       C  0.28288223  0.10602756  0.64006957    -0.15600
C1508       C  0.25386667  0.10269241  0.65539693     0.36700
N1509       N  0.25151323  0.10153081  0.68966797    -0.89900
H1510       H  0.20479469  0.10096862  0.64950037     0.17800
H1511       H  0.30565523  0.10796787  0.59386706     0.17800
N1512       N  0.25880134  0.10576821  0.55367300    -0.88900
H1513       H  0.24038293  0.07674833  0.69609224     0.35200
H1514       H  0.23771889  0.12398789  0.69717051     0.40300
H1515       H  0.27167484  0.08247357  0.54627303     0.39900
H1516       H  0.27093315  0.12972745  0.54701642     0.34800
C1517       C  0.28327728  0.25906284  0.75827556    -0.26900
C1518       C  0.27972637  0.23935762  0.72948862    -0.15000
C1519       C  0.25006254  0.23409114  0.71676588     0.35600
C1520       C  0.22431945  0.24753644  0.73360106    -0.26400
C1521       C  0.22785431  0.26658346  0.76276409    -0.15600
C1522       C  0.25761370  0.27264421  0.77502472     0.36700
N1523       N  0.26179093  0.29220048  0.80469308    -0.89900
H1524       H  0.30596901  0.26247405  0.76862014     0.17800
H1525       H  0.20162765  0.24435926  0.72320607     0.17800
N1526       N  0.24612406  0.21575625  0.68650558    -0.88900
H1527       H  0.27565078  0.31548092  0.80022995     0.35200
H1528       H  0.27363633  0.27449790  0.82043941     0.40300
H1529       H  0.23494962  0.23441492  0.67103339     0.39900
H1530       H  0.23164114  0.19284045  0.69000937     0.34800
C1531       C  0.39391618  0.24233115  0.80574671    -0.26900
C1532       C  0.36931692  0.21709192  0.80164398    -0.15000
C1533       C  0.34566866  0.21658181  0.82529518     0.35600
C1534       C  0.34718117  0.24088759  0.85159111    -0.26400
C1535       C  0.37129348  0.26663545  0.85491934    -0.15600
C1536       C  0.39513268  0.26699546  0.83196965     0.36700
N1537       N  0.42078613  0.29189661  0.83562639    -0.89900
H1538       H  0.41228025  0.24339934  0.78811743     0.17800
H1539       H  0.32894693  0.24005999  0.86942619     0.17800
N1540       N  0.31961888  0.19227209  0.82339626    -0.88900
H1541       H  0.43626160  0.28894055  0.81649758     0.35200
H1542       H  0.43268198  0.28382786  0.85629642     0.40300
H1543       H  0.32746162  0.16459265  0.82200515     0.39900
H1544       H  0.30688820  0.19895220  0.80294410     0.34800
C1545       C  0.39329589  0.25648877  0.55060762    -0.26900
C1546       C  0.37353575  0.28796746  0.54989445    -0.15000
C1547       C  0.35380219  0.29467967  0.57631885     0.35600
C1548       C  0.35409924  0.26973146  0.60238233    -0.26400
C1549       C  0.37351709  0.23801079  0.60276709    -0.15600
C1550       C  0.39328619  0.23149606  0.57651793     0.36700
N1551       N  0.41370003  0.19983690  0.57612314    -0.89900
H1552       H  0.40833938  0.25035558  0.53045588     0.17800
H1553       H  0.33885690  0.27505491  0.62253809     0.17800
N1554       N  0.33327899  0.32643002  0.57657159    -0.88900
H1555       H  0.43624903  0.20963118  0.57380794     0.35200
H1556       H  0.40870841  0.18379411  0.55584389     0.40300
H1557       H  0.34682240  0.35052199  0.57712617     0.39900
H1558       H  0.31986337  0.32677546  0.59745751     0.34800
C1559       C  0.22368658  0.25899867  0.98566577    -0.26900
C1560       C  0.22879200  0.23546604  0.51442435    -0.15000
C1561       C  0.25890471  0.22748273  0.52532964     0.35600
C1562       C  0.28272335  0.24549669  0.00982376    -0.26400
C1563       C  0.27906969  0.26689830  0.98190882    -0.15600
C1564       C  0.24928040  0.27386941  0.96967413     0.36700
N1565       N  0.24521998  0.29593392  0.94110229    -0.89900
H1566       H  0.20086751  0.26297356  0.97568919     0.17800
H1567       H  0.30550557  0.24151312  0.01988355     0.17800
N1568       N  0.26355797  0.20425022  0.55308912    -0.88900
H1569       H  0.22185171  0.29855404  0.93545728     0.35200
H1570       H  0.25563368  0.28142736  0.92212524     0.40300
H1571       H  0.25370199  0.21804195  0.57276293     0.39900
H1572       H  0.28704853  0.20127805  0.55803210     0.34800
C1573       C  0.25324357  0.40249501  0.90668494    -0.26900
C1574       C  0.28178433  0.39902041  0.89076909    -0.15000
C1575       C  0.28176237  0.39837972  0.85677994     0.35600
C1576       C  0.25373361  0.39820346  0.83988247    -0.26400
C1577       C  0.22516947  0.39857765  0.85592443    -0.15600
C1578       C  0.22518721  0.40226077  0.88973367     0.36700
N1579       N  0.19678018  0.40513242  0.90717480    -0.89900
H1580       H  0.25246883  0.40364107  0.93264560     0.17800
H1581       H  0.25449962  0.39588062  0.81397574     0.17800
N1582       N  0.31011335  0.39699554  0.83910130    -0.88900
H1583       H  0.19696624  0.43019670  0.92011788     0.35200
H1584       H  0.19588635  0.38302954  0.92359809     0.40300
H1585       H  0.31072437  0.42012451  0.82374089     0.39900
H1586       H  0.31015149  0.37278053  0.82501167     0.34800
C1587       C  0.75767972  0.27843253  0.96976551    -0.26900
C1588       C  0.72807168  0.26576718  0.97820441    -0.15000
C1589       C  0.72499302  0.23856694  0.50395415     0.35600
C1590       C  0.75135197  0.22375632  0.51816233    -0.26400
C1591       C  0.78089494  0.23638731  0.50974225    -0.15600
C1592       C  0.78415761  0.26411997  0.98463205     0.36700
N1593       N  0.81383213  0.27760102  0.97510305    -0.89900
H1594       H  0.76031325  0.30012059  0.95181393     0.17800
H1595       H  0.74860216  0.20189828  0.53598332     0.17800
N1596       N  0.69582098  0.22516373  0.51499313    -0.88900
H1597       H  0.81425483  0.30650033  0.97902789     0.35200
H1598       H  0.81642027  0.27301614  0.95047353     0.40300
H1599       H  0.68392422  0.21366990  0.49565144     0.39900
H1600       H  0.68343831  0.24777510  0.52435418     0.34800
C1601       C  0.72610682  0.40525691  0.85755113    -0.26900
C1602       C  0.72663343  0.39990872  0.89098442    -0.15000
C1603       C  0.75560495  0.39683818  0.90617819     0.35600
C1604       C  0.78283334  0.39596342  0.88768205    -0.26400
C1605       C  0.78217384  0.39829519  0.85394820    -0.15600
C1606       C  0.75335848  0.40476118  0.83906293     0.36700
N1607       N  0.75130497  0.40943577  0.80501816    -0.89900
H1608       H  0.70424209  0.40845992  0.84536945     0.17800
H1609       H  0.80455805  0.39175154  0.89990863     0.17800
N1610       N  0.75759874  0.39263706  0.94028026    -0.88900
H1611       H  0.74086836  0.43534563  0.80046835     0.35200
H1612       H  0.73700814  0.38851551  0.79598021     0.40300
H1613       H  0.77102380  0.41446770  0.94917889     0.39900
H1614       H  0.76903973  0.36745976  0.94517101     0.34800
C1615       C  0.61353210  0.24169042  0.80305672    -0.26900
C1616       C  0.63742458  0.21485507  0.80032928    -0.15000
C1617       C  0.66094815  0.21459458  0.82359366     0.35600
C1618       C  0.66054384  0.24131266  0.84818906    -0.26400
C1619       C  0.63713959  0.26860841  0.85029005    -0.15600
C1620       C  0.61315650  0.26850643  0.82769466     0.36700
N1621       N  0.58824732  0.29509707  0.83011917    -0.89900
H1622       H  0.59528146  0.24248377  0.78542884     0.17800
H1623       H  0.67879986  0.24072050  0.86585790     0.17800
N1624       N  0.68575825  0.18801653  0.82202121    -0.88900
H1625       H  0.57617030  0.28936034  0.85129534     0.35200
H1626       H  0.57265349  0.29151448  0.81133333     0.40300
H1627       H  0.68609972  0.17296917  0.84353429     0.39900
H1628       H  0.70641419  0.20279359  0.82016791     0.34800
C1629       C  0.62298524  0.24992273  0.54698817    -0.26900
C1630       C  0.63414493  0.28682734  0.54931833    -0.15000
C1631       C  0.64583342  0.29891458  0.57911059     0.35600
C1632       C  0.64579508  0.27438658  0.60543176    -0.26400
C1633       C  0.63524048  0.23710177  0.60293011    -0.15600
C1634       C  0.62398596  0.22497410  0.57304571     0.36700
N1635       N  0.61392143  0.18722986  0.56868455    -0.89900
H1636       H  0.61469105  0.23954904  0.52419335     0.17800
H1637       H  0.65452943  0.28473992  0.62803693     0.17800
N1638       N  0.65749653  0.33595632  0.58364088    -0.88900
H1639       H  0.62729975  0.17511837  0.55048295     0.35200
H1640       H  0.59103359  0.18794336  0.56098541     0.40300
H1641       H  0.64063526  0.35520729  0.57647312     0.39900
H1642       H  0.67710866  0.33935993  0.56936889     0.34800
C1643       C  0.52083314  0.30066661  0.93579388    -0.26900
C1644       C  0.53645744  0.33481703  0.93208269    -0.15000
C1645       C  0.51878650  0.36829633  0.93015590     0.35600
C1646       C  0.48644634  0.36653956  0.93140193    -0.26400
C1647       C  0.47084456  0.33235196  0.93479215    -0.15600
C1648       C  0.48850049  0.29910589  0.93715163     0.36700
N1649       N  0.47387785  0.26347860  0.94046752    -0.89900
H1650       H  0.53372934  0.27467448  0.93738849     0.17800
H1651       H  0.47335676  0.39238450  0.92984981     0.17800
N1652       N  0.53347560  0.40411492  0.92700478    -0.88900
H1653       H  0.48183250  0.25098762  0.96158076     0.35200
H1654       H  0.48073665  0.24664876  0.92117099     0.40300
H1655       H  0.54489874  0.40950889  0.94853484     0.39900
H1656       H  0.51715414  0.42552541  0.92431375     0.34800
C1657       C  0.12426134  0.49588902  0.78311025    -0.26900
C1658       C  0.12634110  0.46465586  0.76282538    -0.15000
C1659       C  0.12498103  0.47050748  0.72922648     0.35600
C1660       C  0.12533622  0.50704573  0.71672823    -0.26400
C1661       C  0.12681146  0.53826700  0.73704077    -0.15600
C1662       C  0.12437302  0.53244988  0.77059601     0.36700
N1663       N  0.12274855  0.56356547  0.79222357    -0.89900
H1664       H  0.12435302  0.49213734  0.80890397     0.17800
H1665       H  0.12623860  0.51075826  0.69094511     0.17800
N1666       N  0.12404920  0.43941818  0.70754516    -0.88900
H1667       H  0.14128489  0.56156557  0.80808677     0.35200
H1668       H  0.10239241  0.56132812  0.80556413     0.40300
H1669       H  0.14312852  0.44107887  0.69222736     0.39900
H1670       H  0.10416326  0.44199484  0.69362899     0.34800
C1671       C  0.88235482  0.50497214  0.71428090    -0.26900
C1672       C  0.88225338  0.53632319  0.73442205    -0.15000
C1673       C  0.88517165  0.53072066  0.76792456     0.35600
C1674       C  0.88491154  0.49427258  0.78070471    -0.26400
C1675       C  0.88180198  0.46296357  0.76071042    -0.15600
C1676       C  0.88233236  0.46845269  0.72690582     0.36700
N1677       N  0.88174218  0.43698687  0.70538907    -0.89900
H1678       H  0.88072373  0.50888017  0.68856874     0.17800
H1679       H  0.88534363  0.49073033  0.80651402     0.17800
N1680       N  0.88763031  0.56201529  0.78922824    -0.88900
H1681       H  0.90224489  0.42195553  0.70857847     0.35200
H1682       H  0.88152343  0.44585314  0.68148366     0.40300
H1683       H  0.90816760  0.55917397  0.80204325     0.39900
H1684       H  0.86933827  0.56089776  0.80559350     0.34800
C1685       C  0.98794804  0.70406816  0.68612747    -0.26900
C1686       C  0.97240405  0.66972619  0.68830183    -0.15000
C1687       C  0.98994003  0.63646584  0.69189478     0.35600
C1688       C  0.02223677  0.63808060  0.69081120    -0.26400
C1689       C  0.03787413  0.67221740  0.68754990    -0.15600
C1690       C  0.02037384  0.70578794  0.68587403     0.36700
N1691       N  0.03534265  0.74148868  0.68354577    -0.89900
H1692       H  0.97476006  0.72977634  0.68390862     0.17800
H1693       H  0.03530781  0.61229725  0.69313931     0.17800
N1694       N  0.97503407  0.60112912  0.69718635    -0.88900
H1695       H  0.01916420  0.76329644  0.68386679     0.35200
H1696       H  0.04628916  0.74266094  0.66119147     0.40300
H1697       H  0.96389095  0.60260157  0.71944537     0.39900
H1698       H  0.99122679  0.57943665  0.69892329     0.34800
C1699       C  0.88150181  0.96905758  0.51697665    -0.26900
C1700       C  0.88062922  0.96297725  0.98381065    -0.15000
C1701       C  0.88129045  0.99538181  0.96437687     0.35600
C1702       C  0.88088691  0.03095938  0.97893864    -0.26400
C1703       C  0.88092272  0.03684054  0.51261511    -0.15600
C1704       C  0.88051623  0.00435003  0.53181306     0.36700
N1705       N  0.87709967  0.00699131  0.56606675    -0.89900
H1706       H  0.88007510  0.94435480  0.53197108     0.17800
H1707       H  0.88000248  0.05552909  0.96372433     0.17800
N1708       N  0.88066015  0.99235147  0.92999952    -0.88900
H1709       H  0.87823346  0.98047181  0.57663170     0.35200
H1710       H  0.85493778  0.01728695  0.57079986     0.40300
H1711       H  0.90167051  0.98056498  0.92275923     0.39900
H1712       H  0.87952721  0.01883311  0.91936666     0.34800
C1713       C  0.84837866  0.73691569  0.85114120    -0.26900
C1714       C  0.87185496  0.76363721  0.85409000    -0.15000
C1715       C  0.89632535  0.76346923  0.83180415     0.35600
C1716       C  0.89614929  0.73758407  0.80644239    -0.26400
C1717       C  0.87184824  0.71198522  0.80240367    -0.15600
C1718       C  0.84809859  0.71104302  0.82572156     0.36700
N1719       N  0.82352814  0.68438501  0.82339646    -0.89900
H1720       H  0.83002933  0.73629315  0.86884130     0.17800
H1721       H  0.91477243  0.73840617  0.78909148     0.17800
N1722       N  0.92175811  0.78869801  0.83548242    -0.88900
H1723       H  0.80757200  0.68818904  0.84198700     0.35200
H1724       H  0.83316559  0.65775239  0.82660534     0.40300
H1725       H  0.91365815  0.81570342  0.83058673     0.39900
H1726       H  0.93887390  0.78310049  0.81839568     0.34800
C1727       C  0.89690543  0.75974225  0.55523039    -0.26900
C1728       C  0.87302260  0.78651623  0.55199329    -0.15000
C1729       C  0.84910119  0.78692323  0.57521163     0.35600
C1730       C  0.84980043  0.76106441  0.60068671    -0.26400
C1731       C  0.87353101  0.73433343  0.60358917    -0.15600
C1732       C  0.89718274  0.73365479  0.58046683     0.36700
N1733       N  0.92188793  0.70703724  0.58280212    -0.89900
H1734       H  0.91530144  0.75828717  0.53762567     0.17800
H1735       H  0.83154585  0.76174252  0.61849593     0.17800
N1736       N  0.82382569  0.81293926  0.57269709    -0.88900
H1737       H  0.94257946  0.72176508  0.58419554     0.35200
H1738       H  0.92232651  0.69121770  0.56170405     0.40300
H1739       H  0.83260221  0.83975357  0.57650459     0.39900
H1740       H  0.80757714  0.80831607  0.59083273     0.34800
C1741       C  0.12805372  0.96815242  0.51900248    -0.26900
C1742       C  0.12702299  0.96543247  0.98450448    -0.15000
C1743       C  0.12585772  0.99774269  0.96517124     0.35600
C1744       C  0.12586618  0.03327081  0.97957473    -0.26400
C1745       C  0.12860453  0.03598203  0.51398011    -0.15600
C1746       C  0.12873539  0.00365069  0.53336696     0.36700
N1747       N  0.13151949  0.00643218  0.56750923    -0.89900
H1748       H  0.12931912  0.94378748  0.53444709     0.17800
H1749       H  0.12644020  0.05766244  0.96412824     0.17800
N1750       N  0.12661157  0.99485552  0.93090913    -0.88900
H1751       H  0.15153876  0.99216636  0.57439648     0.35200
H1752       H  0.11269210  0.99288137  0.57793545     0.40300
H1753       H  0.14609305  0.00895211  0.92253387     0.39900
H1754       H  0.10711855  0.00851252  0.92187683     0.34800
C1755       C  0.16278942  0.72081572  0.82218597    -0.26900
C1756       C  0.13586456  0.71571337  0.80408800    -0.15000
C1757       C  0.10887331  0.73604858  0.81263218     0.35600
C1758       C  0.10980410  0.76158794  0.83825414    -0.26400
C1759       C  0.13683261  0.76683158  0.85581131    -0.15600
C1760       C  0.16360325  0.74635883  0.84775665     0.36700
N1761       N  0.19166597  0.75220991  0.86523136    -0.89900
H1762       H  0.18374319  0.70606905  0.81553715     0.17800
H1763       H  0.08912617  0.77680908  0.84511794     0.17800
N1764       N  0.08064907  0.73086893  0.79528004    -0.88900
H1765       H  0.19842053  0.77990335  0.86136654     0.35200
H1766       H  0.20936086  0.73521043  0.85616768     0.40300
H1767       H  0.06320861  0.74822381  0.80438489     0.39900
H1768       H  0.07353152  0.70331868  0.79913438     0.34800
C1769       C  0.11285977  0.76294711  0.55951651    -0.26900
C1770       C  0.13787692  0.78750076  0.55489752    -0.15000
C1771       C  0.16234388  0.78654327  0.57738207     0.35600
C1772       C  0.16161754  0.76086022  0.60261486    -0.26400
C1773       C  0.13725811  0.73557357  0.60630781    -0.15600
C1774       C  0.11230044  0.73706493  0.58490841     0.36700
N1775       N  0.08628977  0.71282394  0.58930567    -0.89900
H1776       H  0.09377193  0.76329516  0.54286260     0.17800
H1777       H  0.18055527  0.76047580  0.61950056     0.17800
N1778       N  0.18844140  0.81079727  0.57540038    -0.88900
H1779       H  0.06992222  0.71735994  0.57136405     0.35200
H1780       H  0.07567620  0.72011543  0.61099714     0.40300
H1781       H  0.18070418  0.83856713  0.57524845     0.39900
H1782       H  0.20076645  0.80497984  0.55439687     0.34800
C1783       C  0.98720325  0.80440683  0.95202175    -0.26900
C1784       C  0.97122862  0.82952947  0.93205826    -0.15000
C1785       C  0.98831792  0.85484940  0.91295410     0.35600
C1786       C  0.02067403  0.85498326  0.91486631    -0.26400
C1787       C  0.03663398  0.83011798  0.93506605    -0.15600
C1788       C  0.01955755  0.80464060  0.95384102     0.36700
N1789       N  0.03526319  0.76349150  0.45031433    -0.89900
H1790       H  0.97449009  0.78507255  0.96702495     0.17800
H1791       H  0.03354966  0.87434463  0.90005007     0.17800
N1792       N  0.97287419  0.88004939  0.89133439    -0.88900
H1793       H  0.02843566  0.74417824  0.43293332     0.35200
H1794       H  0.02741906  0.75406698  0.47262977     0.40300
H1795       H  0.96219843  0.86382914  0.87375943     0.39900
H1796       H  0.98872348  0.89706745  0.87938380     0.34800
C1797       C  0.37977058  0.46919171  0.51686444    -0.26900
C1798       C  0.38025667  0.46489257  0.98503009    -0.15000
C1799       C  0.38520744  0.49695758  0.96598310     0.35600
C1800       C  0.38582381  0.53251317  0.98042528    -0.26400
C1801       C  0.38012047  0.53717907  0.51310168    -0.15600
C1802       C  0.37965559  0.50441061  0.53186969     0.36700
N1803       N  0.37715437  0.50655913  0.56609186    -0.89900
H1804       H  0.37825761  0.44454352  0.53193341     0.17800
H1805       H  0.38812188  0.55690628  0.96515932     0.17800
N1806       N  0.38808259  0.49397861  0.93184911    -0.88900
H1807       H  0.39586842  0.49212808  0.57598265     0.35200
H1808       H  0.35699749  0.49285435  0.57309190     0.40300
H1809       H  0.40921730  0.50552512  0.92511187     0.39900
H1810       H  0.37056588  0.51002793  0.92141067     0.34800
C1811       C  0.28385271  0.75709654  0.98498521    -0.26900
C1812       C  0.28131763  0.73786805  0.51718159    -0.15000
C1813       C  0.25138905  0.72977158  0.52841936     0.35600
C1814       C  0.22581268  0.74383805  0.51199462    -0.26400
C1815       C  0.22849364  0.76611421  0.98319435    -0.15600
C1816       C  0.25787290  0.77165852  0.96963709     0.36700
N1817       N  0.26127900  0.79167760  0.94005711    -0.89900
H1818       H  0.30626859  0.76022777  0.97375197     0.17800
H1819       H  0.20294320  0.73827039  0.52133563     0.17800
N1820       N  0.24690435  0.70770199  0.55674488    -0.88900
H1821       H  0.27200410  0.77390044  0.92347643     0.35200
H1822       H  0.27585233  0.81438513  0.94405933     0.40300
H1823       H  0.23327475  0.68478130  0.55066834     0.39900
H1824       H  0.23456105  0.72388004  0.57335260     0.34800
C1825       C  0.22665650  0.60734344  0.61085122    -0.26900
C1826       C  0.22777812  0.60601552  0.64460082    -0.15000
C1827       C  0.25724360  0.60283706  0.65918964     0.35600
C1828       C  0.28408976  0.60328304  0.64017728    -0.26400
C1829       C  0.28293078  0.60638581  0.60652357    -0.15600
C1830       C  0.25356517  0.60729301  0.59174850     0.36700
N1831       N  0.25091874  0.60986474  0.55744913    -0.89900
H1832       H  0.20451260  0.60938182  0.59907655     0.17800
H1833       H  0.30621655  0.60218877  0.65209364     0.17800
N1834       N  0.26103201  0.60011234  0.69323295    -0.88900
H1835       H  0.22787159  0.61277194  0.55063920     0.35200
H1836       H  0.25847700  0.58435489  0.54787940     0.40300
H1837       H  0.24940476  0.57640718  0.70143131     0.39900
H1838       H  0.25174635  0.62399276  0.70410544     0.34800
C1839       C  0.62619435  0.53543752  0.47877139    -0.26900
C1840       C  0.62832236  0.53889741  0.51240736    -0.15000
C1841       C  0.62621783  0.50618813  0.53117115     0.35600
C1842       C  0.62852264  0.46854296  0.01677183    -0.26400
C1843       C  0.62600390  0.46521719  0.98313860    -0.15600
C1844       C  0.62072184  0.49808305  0.96513625     0.36700
N1845       N  0.61586652  0.49620341  0.93122393    -0.89900
H1846       H  0.62677157  0.56022361  0.46379071     0.17800
H1847       H  0.63171924  0.44382425  0.03148280     0.17800
N1848       N  0.62671747  0.50819859  0.56547514    -0.88900
H1849       H  0.64415885  0.51225147  0.42057085     0.35200
H1850       H  0.59456105  0.50868149  0.92625084     0.40300
H1851       H  0.64567273  0.49275271  0.57362319     0.39900
H1852       H  0.61710855  0.49069364  0.07741119     0.34800
C1853       C  0.78434794  0.74122947  0.01059054    -0.26900
C1854       C  0.78040071  0.76434408  0.98374416    -0.15000
C1855       C  0.75035261  0.77306857  0.97312802     0.35600
C1856       C  0.72668500  0.75978466  0.48879625    -0.26400
C1857       C  0.73088420  0.73616768  0.51529053    -0.15600
C1858       C  0.76101532  0.72789915  0.52589106     0.36700
N1859       N  0.76599987  0.70466637  0.55342516    -0.89900
H1860       H  0.80726180  0.73555796  0.01972426     0.17800
H1861       H  0.70371642  0.76540467  0.47979265     0.17800
N1862       N  0.74564997  0.79627867  0.94550322    -0.88900
H1863       H  0.77806254  0.72026488  0.57042148     0.35200
H1864       H  0.78010436  0.68228387  0.54643535     0.40300
H1865       H  0.73225444  0.81932880  0.95246298     0.39900
H1866       H  0.73310028  0.78100830  0.92867338     0.34800
C1867       C  0.72912712  0.59690064  0.63620314    -0.26900
C1868       C  0.72987376  0.60289194  0.60288734    -0.15000
C1869       C  0.75898718  0.60528149  0.58748513     0.35600
C1870       C  0.78607800  0.60565692  0.60608790    -0.26400
C1871       C  0.78515590  0.60229659  0.63974162    -0.15600
C1872       C  0.75627080  0.59591384  0.65454468     0.36700
N1873       N  0.75407078  0.58954886  0.68838943    -0.89900
H1874       H  0.70717484  0.59392804  0.64837947     0.17800
H1875       H  0.80802316  0.60968611  0.59415636     0.17800
N1876       N  0.76106806  0.60907493  0.55320520    -0.88900
H1877       H  0.74352778  0.56364087  0.69200282     0.35200
H1878       H  0.73982240  0.61027559  0.69828324     0.40300
H1879       H  0.75373143  0.58385680  0.54317168     0.39900
H1880       H  0.78398951  0.61225810  0.54595308     0.34800
C1881       C  0.52282833  0.70311949  0.56294112    -0.26900
C1882       C  0.53903216  0.66895759  0.56136223    -0.15000
C1883       C  0.52167477  0.63550096  0.55861223     0.35600
C1884       C  0.48936440  0.63697262  0.55923559    -0.26400
C1885       C  0.47310250  0.67104457  0.56187440    -0.15600
C1886       C  0.49049491  0.70465299  0.56296197     0.36700
N1887       N  0.47500319  0.73945381  0.07569585    -0.89900
H1888       H  0.53426556  0.72758281  0.07392951     0.17800
H1889       H  0.47686827  0.61090144  0.55737001     0.17800
N1890       N  0.53590461  0.59955140  0.55420169    -0.88900
H1891       H  0.46013850  0.73568404  0.09521047     0.35200
H1892       H  0.46248473  0.74881900  0.05587123     0.40300
H1893       H  0.54852227  0.59263910  0.57466335     0.39900
H1894       H  0.55057362  0.60073235  0.53426953     0.34800
C1895       C  0.62803651  0.99598833  0.78241557    -0.26900
C1896       C  0.62876404  0.96420478  0.76269328    -0.15000
C1897       C  0.62662003  0.96938292  0.72894705     0.35600
C1898       C  0.62686067  0.00583864  0.71584221    -0.26400
C1899       C  0.62902598  0.03755416  0.73549702    -0.15600
C1900       C  0.62821438  0.03232508  0.76927333     0.36700
N1901       N  0.62835477  0.06384227  0.79052765    -0.89900
H1902       H  0.62911401  0.99277380  0.80823614     0.17800
H1903       H  0.62696306  0.00931831  0.69002792     0.17800
N1904       N  0.62510683  0.93754931  0.70792104    -0.88900
H1905       H  0.64770841  0.06158993  0.80527706     0.35200
H1906       H  0.60872942  0.06243399  0.80509148     0.40300
H1907       H  0.62411421  0.94604484  0.68394091     0.39900
H1908       H  0.60445536  0.92371934  0.71280605     0.34800
C1909       C  0.72428507  0.73921973  0.73904426    -0.26900
C1910       C  0.72849058  0.76324335  0.76521858    -0.15000
C1911       C  0.75862148  0.77212935  0.77513577     0.35600
C1912       C  0.78392266  0.75750619  0.75838550    -0.26400
C1913       C  0.77976158  0.73379399  0.73199364    -0.15600
C1914       C  0.74960564  0.72457141  0.72214617     0.36700
N1915       N  0.74483597  0.70058085  0.69492548    -0.89900
H1916       H  0.70118559  0.73320528  0.73080806     0.17800
H1917       H  0.80692742  0.76363151  0.76687071     0.17800
N1918       N  0.76361557  0.79572294  0.80241922    -0.88900
H1919       H  0.75332288  0.71443570  0.67467021     0.35200
H1920       H  0.72132449  0.69637828  0.69104191     0.40300
H1921       H  0.77648280  0.81881428  0.79494790     0.39900
H1922       H  0.77674503  0.78074262  0.81909549     0.34800
C1923       C  0.75308836  0.90217100  0.84364654    -0.26900
C1924       C  0.72480026  0.89532358  0.85911795    -0.15000
C1925       C  0.72479907  0.89141948  0.89308911     0.35600
C1926       C  0.75292812  0.89178724  0.90998882    -0.26400
C1927       C  0.78128657  0.89589485  0.89406597    -0.15600
C1928       C  0.78104366  0.90245746  0.86064797     0.36700
N1929       N  0.80924867  0.90888491  0.84363361    -0.89900
H1930       H  0.75384249  0.90581487  0.81785690     0.17800
H1931       H  0.75274930  0.88697690  0.93564951     0.17800
N1932       N  0.69647354  0.88576417  0.91038350    -0.88900
H1933       H  0.80759535  0.93492686  0.83229640     0.35200
H1934       H  0.81150340  0.88835674  0.82588800     0.40300
H1935       H  0.68343746  0.91035183  0.90834031     0.39900
H1936       H  0.70063704  0.88197158  0.93486017     0.34800
C1937       C  0.65854704  0.73602855  0.89507954    -0.26900
C1938       C  0.63584875  0.76423539  0.89293979    -0.15000
C1939       C  0.61280742  0.76630643  0.91674581     0.35600
C1940       C  0.61349895  0.74096895  0.94255929    -0.26400
C1941       C  0.63670823  0.71330207  0.94534011    -0.15600
C1942       C  0.65923842  0.71054102  0.92082584     0.36700
N1943       N  0.68300589  0.68237708  0.92222784    -0.89900
H1944       H  0.67600712  0.73392225  0.87649949     0.17800
H1945       H  0.59599376  0.74353906  0.96102423     0.17800
N1946       N  0.58854309  0.79375707  0.91448342    -0.88900
H1947       H  0.69818137  0.68492713  0.90281746     0.35200
H1948       H  0.67238668  0.65633969  0.91983921     0.40300
H1949       H  0.57363954  0.79188229  0.93417697     0.39900
H1950       H  0.57547215  0.78737137  0.89421354     0.34800
C1951       C  0.66340354  0.78302731  0.67662877    -0.26900
C1952       C  0.63646948  0.78738026  0.69519187    -0.15000
C1953       C  0.60981996  0.76678630  0.68617852     0.35600
C1954       C  0.61121054  0.74214201  0.66006547    -0.26400
C1955       C  0.63842064  0.73714604  0.64244547    -0.15600
C1956       C  0.66463882  0.75833984  0.65058194     0.36700
N1957       N  0.69322729  0.75430025  0.63358267    -0.89900
H1958       H  0.68421633  0.79777466  0.68308795     0.17800
H1959       H  0.59070248  0.72691378  0.65331251     0.17800
N1960       N  0.58092724  0.77009929  0.70274504    -0.88900
H1961       H  0.68999784  0.76237149  0.60974402     0.35200
H1962       H  0.69978608  0.72609272  0.63409036     0.40300
H1963       H  0.57471869  0.79838232  0.70408984     0.39900
H1964       H  0.58301893  0.75888337  0.72577550     0.34800
C1965       C  0.38232966  0.99735567  0.77953328    -0.26900
C1966       C  0.37932699  0.96591329  0.75966824    -0.15000
C1967       C  0.37999411  0.97131122  0.72585239     0.35600
C1968       C  0.38039655  0.00789809  0.71310695    -0.26400
C1969       C  0.38029763  0.03940013  0.73318692    -0.15600
C1970       C  0.38282822  0.03376859  0.76670760     0.36700
N1971       N  0.38512554  0.06504387  0.78804854    -0.89900
H1972       H  0.38259415  0.99395340  0.80535733     0.17800
H1973       H  0.37905105  0.01175750  0.68737115     0.17800
N1974       N  0.37926955  0.93974216  0.70446491    -0.88900
H1975       H  0.40546038  0.06207679  0.80118683     0.35200
H1976       H  0.36658633  0.06405654  0.80411599     0.40300
H1977       H  0.39962969  0.92448213  0.70785219     0.39900
H1978       H  0.37930924  0.94852057  0.68053394     0.34800
C1979       C  0.39597233  0.76985437  0.91441581    -0.26900
C1980       C  0.37213311  0.76798705  0.89200489    -0.15000
C1981       C  0.34967973  0.73972469  0.89539890     0.35600
C1982       C  0.35098015  0.71469152  0.92136698    -0.26400
C1983       C  0.37459693  0.71669473  0.94421375    -0.15600
C1984       C  0.39769575  0.74438449  0.94009162     0.36700
N1985       N  0.42297092  0.74713847  0.96195218    -0.89900
H1986       H  0.41389617  0.79059603  0.91154987     0.17800
H1987       H  0.33286962  0.69416840  0.92398506     0.17800
N1988       N  0.32509332  0.73670812  0.87272687    -0.88900
H1989       H  0.42265367  0.77395785  0.97199505     0.35200
H1990       H  0.44344661  0.74404276  0.94889461     0.40300
H1991       H  0.30421289  0.73925377  0.88512060     0.39900
H1992       H  0.32606178  0.70995534  0.86259226     0.34800
C1993       C  0.39531734  0.76315975  0.69061331    -0.26900
C1994       C  0.36984820  0.78742948  0.69495498    -0.15000
C1995       C  0.34522421  0.78550748  0.67296868     0.35600
C1996       C  0.34642014  0.75955867  0.64775197    -0.26400
C1997       C  0.37163742  0.73510164  0.64388846    -0.15600
C1998       C  0.39651697  0.73721359  0.66530278     0.36700
N1999       N  0.42320893  0.71370610  0.66084838    -0.89900
H2000       H  0.41440813  0.76405357  0.70723483     0.17800
H2001       H  0.32741781  0.75854220  0.63097885     0.17800
N2002       N  0.31879881  0.80947368  0.67613385    -0.88900
H2003       H  0.43942243  0.71857561  0.67882538     0.35200
H2004       H  0.43363195  0.72141890  0.63919405     0.40300
H2005       H  0.29925890  0.79267539  0.67825001     0.39900
H2006       H  0.31670364  0.82511739  0.65504711     0.34800
C2007       C  0.48703825  0.80107413  0.80287443    -0.26900
C2008       C  0.47115121  0.83449246  0.81020549    -0.15000
C2009       C  0.48861582  0.86676960  0.81725467     0.35600
C2010       C  0.52086903  0.86471727  0.81775176    -0.26400
C2011       C  0.53678402  0.83123324  0.81092916    -0.15600
C2012       C  0.51942470  0.79918461  0.80298039     0.36700
N2013       N  0.53437405  0.76461091  0.79479067    -0.89900
H2014       H  0.47432580  0.77600645  0.79700217     0.17800
H2015       H  0.53346714  0.88988899  0.82357191     0.17800
N2016       N  0.47392607  0.90196313  0.82391885    -0.88900
H2017       H  0.52749730  0.75708353  0.77167501     0.35200
H2018       H  0.52670252  0.74400940  0.81069798     0.40300
H2019       H  0.48183070  0.92153621  0.80719229     0.39900
H2020       H  0.48072799  0.91075088  0.84672587     0.34800
C2021       C  0.22500896  0.75538827  0.76375773    -0.26900
C2022       C  0.22869343  0.73666957  0.73443529    -0.15000
C2023       C  0.25836020  0.73320974  0.72064013     0.35600
C2024       C  0.28367335  0.74775397  0.73679788    -0.26400
C2025       C  0.27999336  0.76662310  0.76607737    -0.15600
C2026       C  0.25023688  0.77045624  0.77967696     0.36700
N2027       N  0.24502144  0.78846057  0.80995866    -0.89900
H2028       H  0.20243946  0.75743515  0.77485164     0.17800
H2029       H  0.30621935  0.74583783  0.72560594     0.17800
N2030       N  0.26327833  0.71679495  0.68965106    -0.88900
H2031       H  0.25037844  0.81680604  0.80801346     0.35200
H2032       H  0.25939630  0.77605891  0.82704904     0.40300
H2033       H  0.24919004  0.73067335  0.67313520     0.39900
H2034       H  0.25713481  0.68863776  0.69032319     0.34800
C2035       C  0.25295419  0.90646048  0.90576093    -0.26900
C2036       C  0.22487028  0.89844850  0.89039504    -0.15000
C2037       C  0.22521838  0.89403208  0.85661180     0.35600
C2038       C  0.25315307  0.89541943  0.83955100    -0.26400
C2039       C  0.28140503  0.90045009  0.85517788    -0.15600
C2040       C  0.28111313  0.90754284  0.88858972     0.36700
N2041       N  0.30940549  0.91510379  0.90510618    -0.89900
H2042       H  0.25321672  0.91046430  0.93150950     0.17800
H2043       H  0.25275558  0.89024561  0.81394293     0.17800
N2044       N  0.19743956  0.88666598  0.83935236    -0.88900
H2045       H  0.30529479  0.91942887  0.92956068     0.35200
H2046       H  0.31807435  0.94023892  0.89604490     0.40300
H2047       H  0.20001453  0.86098054  0.82757587     0.39900
H2048       H  0.19467556  0.90751369  0.82197508     0.34800
loop_ 
_geom_bond_atom_site_label_1 
_geom_bond_atom_site_label_2 
_geom_bond_distance 
_geom_bond_site_symmetry_2 
_ccdc_geom_bond_type 
Fe1          O17   2.059       .  S
Fe1           O7   2.125       .  S
Fe1          O14   2.139       .  S
Fe1           O6   2.049       .  S
Fe1          O12   1.923       .  S
Fe2           O5   2.017       .  S
Fe2           O9   2.097       .  S
Fe2          O13   2.031       .  S
Fe2          O18   2.111       .  S
Fe2          O12   1.933       .  S
Fe3          O21   2.113       .  S
Fe3           O8   2.031       .  S
Fe3          O15   2.032       .  S
Fe3           O4   2.102       .  S
Fe3          O12   1.934       .  S
O4           C11   1.277       .  A
O5           C19   1.258       .  A
O6           C11   1.268       .  A
O7           C10   1.284       .  A
O8           C20   1.263       .  A
O9           C22   1.274       .  A
C10          O15   1.266       .  A
C10         C956   1.483       .  S
C11         C984   1.494       .  S
O13          C16   1.267       .  A
O14          C16   1.288       .  A
C16         C942   1.498       .  S
O17          C22   1.266       .  A
O18          C20   1.277       .  A
C19          O21   1.277       .  A
C19        C1001   1.462       .  S
C20         C970   1.486       .  S
C22        C1015   1.502       .  S
Fe23         O39   2.130       .  S
Fe23         O29   2.059       .  S
Fe23         O36   2.056       .  S
Fe23         O28   2.116       .  S
Fe23         O34   1.929       .  S
Fe24         O27   2.127       .  S
Fe24         O31   2.038       .  S
Fe24         O35   2.102       .  S
Fe24         O40   2.021       .  S
Fe24         O34   1.935       .  S
Fe25         O43   2.027       .  S
Fe25         O30   2.102       .  S
Fe25         O37   2.088       .  S
Fe25         O26   2.026       .  S
Fe25         O34   1.931       .  S
O26          C33   1.265       .  A
O27          C41   1.281       .  A
O28          C33   1.282       .  A
O29          C32   1.271       .  A
O30          C42   1.276       .  A
O31          C44   1.269       .  A
C32          O37   1.273       .  A
C32         C987   1.493       .  S
C33         C914   1.486       .  S
O35          C38   1.276       .  A
O36          C38   1.266       .  A
C38         C900   1.503       .  S
O39          C44   1.286       .  A
O40          C42   1.259       .  A
C41          O43   1.259       .  A
C41         C928   1.495       .  S
C42         C886   1.464       .  S
C44         C872   1.498       .  S
Fe45         O61   2.070       .  S
Fe45         O51   2.116       .  S
Fe45         O58   2.124       .  S
Fe45         O50   2.059       .  S
Fe45         O56   1.934       .  S
Fe46         O49   2.023       .  S
Fe46         O53   2.100       .  S
Fe46         O57   2.044       .  S
Fe46       O1086   2.110   1_554  S
Fe46         O56   1.936       .  S
Fe47         O65   2.105       .  S
Fe47         O59   2.035       .  S
Fe47         O48   2.095       .  S
Fe47       O1076   2.036   1_554  S
Fe47         O56   1.936       .  S
O48          C55   1.276       .  A
O49          C63   1.262       .  A
O50          C55   1.269       .  A
O51          C54   1.280       .  A
O52       Fe1071   2.031       .  S
O52          C64   1.260       .  A
O53          C66   1.274       .  A
C54          O59   1.264       .  A
C54         C931   1.478       .  S
C55         C858   1.492       .  S
O57          C60   1.269       .  A
O58          C60   1.284       .  A
C60         C816   1.492       .  S
O61          C66   1.270       .  A
O62       Fe1070   2.104       .  S
O62          C64   1.273       .  A
C63          O65   1.278       .  A
C63         C833   1.468       .  S
C64         C917   1.486       .  S
C66         C844   1.506       .  S
Fe67         O83   2.118       .  S
Fe67         O73   2.062       .  S
Fe67         O80   2.063       .  S
Fe67         O72   2.109       .  S
Fe67         O78   1.928       .  S
Fe68         O75   2.042       .  S
Fe68         O79   2.107       .  S
Fe68         O84   2.019       .  S
Fe68       O1095   2.126   1_554  S
Fe68         O78   1.931       .  S
Fe69         O74   2.100       .  S
Fe69         O81   2.091       .  S
Fe69         O70   2.031       .  S
Fe69       O1111   2.030   1_554  S
Fe69         O78   1.929       .  S
O70          C77   1.264       .  A
O71       Fe1092   2.120       .  S
O71          C85   1.280       .  A
O72          C77   1.280       .  A
O73          C76   1.272       .  A
O74          C86   1.276       .  A
O75          C88   1.269       .  A
C76          O81   1.274       .  A
C76         C861   1.492       .  S
C77         C973   1.483       .  S
O79          C82   1.277       .  A
O80          C82   1.270       .  A
C82         C805   1.505       .  S
O83          C88   1.282       .  A
O84          C86   1.260       .  A
C85          O87   1.262       .  A
C85         C959   1.494       .  S
C86         C788   1.460       .  S
O87       Fe1093   2.030       .  S
C88         C777   1.491       .  S
Fe89        O105   2.061       .  S
Fe89         O95   2.112       .  S
Fe89        O102   2.122       .  S
Fe89         O94   2.045       .  S
Fe89        O100   1.927       .  S
Fe90         O93   2.016       .  S
Fe90         O97   2.093       .  S
Fe90        O101   2.028       .  S
Fe90       O1130   2.101       .  S
Fe90        O100   1.926       .  S
Fe91        O109   2.106       .  S
Fe91        O103   2.032       .  S
Fe91         O92   2.091       .  S
Fe91       O1120   2.034       .  S
Fe91        O100   1.927       .  S
O92          C99   1.276       .  A
O93         C107   1.261       .  A
O94          C99   1.270       .  A
O95          C98   1.279       .  A
O96       Fe1115   2.035   1_554  S
O96         C108   1.265       .  A
O97         C110   1.274       .  A
C98         O103   1.265       .  A
C98         C735   1.475       .  S
C99         C763   1.489       .  S
O101        C104   1.266       .  A
O102        C104   1.283       .  A
C104        C718   1.490       .  S
O105        C110   1.268       .  A
O106      Fe1114   2.108   1_554  S
O106        C108   1.275       .  A
C107        O109   1.278       .  A
C107        C791   1.465       .  S
C108        C746   1.495       .  S
C110       C1012   1.492       .  S
Fe111       O127   2.118       .  S
Fe111       O117   2.044       .  S
Fe111       O124   2.053       .  S
Fe111       O116   2.108       .  S
Fe111       O122   1.932       .  S
Fe112       O119   2.033       .  S
Fe112       O123   2.101       .  S
Fe112       O128   2.017       .  S
Fe112      O1139   2.113       .  S
Fe112       O122   1.928       .  S
Fe113       O118   2.105       .  S
Fe113       O125   2.090       .  S
Fe113       O114   2.033       .  S
Fe113      O1155   2.037       .  S
Fe113       O122   1.929       .  S
O114        C121   1.266       .  A
O115      Fe1136   2.113   1_554  S
O115        C129   1.277       .  A
O116        C121   1.279       .  A
O117        C120   1.268       .  A
O118        C130   1.278       .  A
O119        C132   1.268       .  A
C120        O125   1.277       .  A
C120        C760   1.489       .  S
C121        C690   1.485       .  S
O123        C126   1.276       .  A
O124        C126   1.266       .  A
C126        C903   1.495       .  S
O127        C132   1.282       .  A
O128        C130   1.261       .  A
C129        O131   1.261   1_554  A
C129        C704   1.487       .  S
C130        C830   1.467       .  S
O131      Fe1137   2.030       .  S
C132        C676   1.492       .  S
Fe133       O149   2.066       .  S
Fe133       O139   2.112       .  S
Fe133       O146   2.123       .  S
Fe133       O138   2.058       .  S
Fe133       O144   1.931       .  S
Fe134       O137   2.018       .  S
Fe134       O141   2.101       .  S
Fe134       O145   2.034       .  S
Fe134       O150   2.112       .  S
Fe134       O144   1.934       .  S
Fe135       O153   2.104       .  S
Fe135       O140   2.034       .  S
Fe135       O147   2.029       .  S
Fe135       O136   2.091       .  S
Fe135       O144   1.933       .  S
O136        C143   1.276       .  A
O137        C151   1.260       .  A
O138        C143   1.270       .  A
O139        C142   1.281       .  A
O140        C152   1.263       .  A
O141        C154   1.274       .  A
C142        O147   1.266       .  A
C142        C707   1.488       .  S
C143        C662   1.493       .  S
O145        C148   1.267       .  A
O146        C148   1.285       .  A
C148        C648   1.492       .  S
O149        C154   1.269       .  A
O150        C152   1.277       .  A
C151        O153   1.276       .  A
C151        C889   1.463       .  S
C152        C693   1.491       .  S
C154        C847   1.506       .  S
Fe155       O171   2.125       .  S
Fe155       O161   2.053       .  S
Fe155       O168   2.063       .  S
Fe155       O160   2.109       .  S
Fe155       O166   1.930       .  S
Fe156       O159   2.110       .  S
Fe156       O163   2.040       .  S
Fe156       O167   2.102       .  S
Fe156       O172   2.023       .  S
Fe156       O166   1.934       .  S
Fe157       O175   2.034       .  S
Fe157       O162   2.106       .  S
Fe157       O169   2.097       .  S
Fe157       O158   2.034       .  S
Fe157       O166   1.935       .  S
O158        C165   1.265       .  A
O159        C173   1.278       .  A
O160        C165   1.280       .  A
O161        C164   1.271       .  A
O162        C174   1.277       .  A
O163        C176   1.268       .  A
C164        O169   1.276       .  A
C164        C665   1.494       .  S
C165        C749   1.480       .  S
O167        C170   1.274       .  A
O168        C170   1.268       .  A
C170        C802   1.506       .  S
O171        C176   1.285       .  A
O172        C174   1.260       .  A
C173        O175   1.262       .  A
C173        C732   1.490       .  S
C174        C998   1.461       .  S
C176        C637   1.493       .  S
Fe177       O193   2.061       .  S
Fe177       O183   2.120       .  S
Fe177       O190   2.129       .  S
Fe177       O182   2.055       .  S
Fe177       O188   1.937       .  S
Fe178       O181   2.021       .  S
Fe178       O185   2.104       .  S
Fe178       O189   2.038       .  S
Fe178      O1218   2.117       .  S
Fe178       O188   1.933       .  S
Fe179       O197   2.104       .  S
Fe179       O191   2.034       .  S
Fe179       O180   2.101       .  S
Fe179      O1208   2.038       .  S
Fe179       O188   1.930       .  S
O180        C187   1.278       .  A
O181        C195   1.262       .  A
O182        C187   1.271       .  A
O183        C186   1.280       .  A
O184      Fe1203   2.034       .  S
O184        C196   1.262   1_556  A
O185        C198   1.277       .  A
C186        O191   1.264       .  A
C186        C595   1.484       .  S
C187        C620   1.489       .  S
O189        C192   1.267       .  A
O190        C192   1.283       .  A
C192        C819   1.497       .  S
O193        C198   1.269       .  A
O194      Fe1202   2.111   1_554  S
O194        C196   1.275       .  A
C195        O197   1.277       .  A
C195        C564   1.476       .  S
C196        C606   1.492       .  S
C198        C578   1.503       .  S
Fe199       O215   2.129       .  S
Fe199       O205   2.052       .  S
Fe199       O212   2.051       .  S
Fe199       O204   2.120       .  S
Fe199       O210   1.927       .  S
Fe200       O207   2.034       .  S
Fe200       O211   2.098       .  S
Fe200       O216   2.021       .  S
Fe200      O1227   2.105       .  S
Fe200       O210   1.932       .  S
Fe201       O206   2.114       .  S
Fe201       O213   2.104       .  S
Fe201       O202   2.030       .  S
Fe201      O1243   2.031       .  S
Fe201       O210   1.931       .  S
O202        C209   1.265       .  A
O203      Fe1224   2.120   1_554  S
O203        C217   1.278       .  A
O204        C209   1.282       .  A
O205        C208   1.270       .  A
O206        C218   1.279       .  A
O207        C220   1.267       .  A
C208        O213   1.277       .  A
C208        C623   1.490       .  S
C209        C511   1.485       .  S
O211        C214   1.275       .  A
O212        C214   1.266       .  A
C214        C550   1.496       .  S
O215        C220   1.284       .  A
O216        C218   1.261       .  A
C217        O219   1.263       .  A
C217        C522   1.495       .  S
C218        C539   1.474       .  S
O219      Fe1225   2.034   1_554  S
C220        C774   1.498       .  S
Fe221       O237   2.066       .  S
Fe221       O227   2.122       .  S
Fe221       O234   2.140       .  S
Fe221       O226   2.061       .  S
Fe221       O232   1.929       .  S
Fe222       O225   2.025       .  S
Fe222       O229   2.093       .  S
Fe222       O233   2.034       .  S
Fe222       O238   2.113       .  S
Fe222       O232   1.932       .  S
Fe223       O241   2.109       .  S
Fe223       O228   2.033       .  S
Fe223       O235   2.032       .  S
Fe223       O224   2.097       .  S
Fe223       O232   1.933       .  S
O224        C231   1.276       .  A
O225        C239   1.262       .  A
O226        C231   1.271       .  A
O227        C230   1.283       .  A
O228        C240   1.263       .  A
O229        C242   1.273       .  A
C230        O235   1.265       .  A
C230        C525   1.485       .  S
C231        C466   1.490       .  S
O233        C236   1.268       .  A
O234        C236   1.287       .  A
C236        C945   1.499       .  S
O237        C242   1.269       .  A
O238        C240   1.276       .  A
C239        O241   1.278       .  A
C239        C494   1.467       .  S
C240        C508   1.495       .  S
C242        C483   1.500       .  S
Fe243       O259   2.131       .  S
Fe243       O249   2.060       .  S
Fe243       O256   2.066       .  S
Fe243       O248   2.120       .  S
Fe243       O254   1.932       .  S
Fe244       O247   2.111       .  S
Fe244       O251   2.039       .  S
Fe244       O255   2.100       .  S
Fe244       O260   2.019       .  S
Fe244       O254   1.938       .  S
Fe245       O263   2.038       .  S
Fe245       O250   2.103       .  S
Fe245       O257   2.094       .  S
Fe245       O246   2.031       .  S
Fe245       O254   1.934       .  S
O246        C253   1.265       .  A
O247        C261   1.276       .  A
O248        C253   1.281       .  A
O249        C252   1.272       .  A
O250        C262   1.278       .  A
O251        C264   1.268       .  A
C252        O257   1.276       .  A
C252        C469   1.489       .  S
C253        C609   1.495       .  S
O255        C258   1.275       .  A
O256        C258   1.269       .  A
C258        C438   1.499       .  S
O259        C264   1.285       .  A
O260        C262   1.262       .  A
C261        O263   1.263       .  A
C261        C592   1.495       .  S
C262        C452   1.474       .  S
C264        C875   1.496       .  S
Fe265       O281   2.059       .  S
Fe265       O271   2.112       .  S
Fe265       O278   2.122       .  S
Fe265       O270   2.048       .  S
Fe265       O276   1.932       .  S
Fe266       O269   2.012       .  S
Fe266       O273   2.106       .  S
Fe266       O277   2.032       .  S
Fe266       O282   2.116       .  S
Fe266       O276   1.928       .  S
Fe267       O285   2.104       .  S
Fe267       O272   2.033       .  S
Fe267       O279   2.037       .  S
Fe267       O268   2.094       .  S
Fe267       O276   1.932       .  S
O268        C275   1.276       .  A
O269        C283   1.261       .  A
O270        C275   1.269       .  A
O271        C274   1.280       .  A
O272        C284   1.262       .  A
O273        C286   1.277       .  A
C274        O279   1.264       .  A
C274        C413   1.477       .  S
C275        C424   1.489       .  S
O277        C280   1.266       .  A
O278        C280   1.282       .  A
C280        C651   1.490       .  S
O281        C286   1.269       .  A
O282        C284   1.279       .  A
C283        O285   1.276       .  A
C283        C455   1.471       .  S
C284        C399   1.495       .  S
C286        C581   1.503       .  S
Fe287       O303   2.134       .  S
Fe287       O293   2.053       .  S
Fe287       O300   2.061       .  S
Fe287       O292   2.122       .  S
Fe287       O298   1.930       .  S
Fe288       O291   2.108       .  S
Fe288       O295   2.035       .  S
Fe288       O299   2.090       .  S
Fe288       O304   2.025       .  S
Fe288       O298   1.934       .  S
Fe289       O307   2.033       .  S
Fe289       O294   2.109       .  S
Fe289       O301   2.084       .  S
Fe289       O290   2.035       .  S
Fe289       O298   1.933       .  S
O290        C297   1.267       .  A
O291        C305   1.275       .  A
O292        C297   1.283       .  A
O293        C296   1.269       .  A
O294        C306   1.279       .  A
O295        C308   1.268       .  A
C296        O301   1.275       .  A
C296        C427   1.486       .  S
C297        C385   1.497       .  S
O299        C302   1.273       .  A
O300        C302   1.267       .  A
C302        C553   1.495       .  S
O303        C308   1.286       .  A
O304        C306   1.262       .  A
C305        O307   1.261       .  A
C305        C368   1.490       .  S
C306        C497   1.467       .  S
C308        C634   1.498       .  S
Fe309       O325   2.062       .  S
Fe309       O315   2.109       .  S
Fe309       O322   2.115       .  S
Fe309       O314   2.057       .  S
Fe309       O320   1.930       .  S
Fe310       O313   2.024       .  S
Fe310       O317   2.095       .  S
Fe310       O321   2.041       .  S
Fe310      O1350   2.101   1_554  S
Fe310       O320   1.931       .  S
Fe311       O329   2.099       .  S
Fe311       O323   2.031       .  S
Fe311       O312   2.093       .  S
Fe311      O1340   2.034   1_554  S
Fe311       O320   1.932       .  S
O312        C319   1.276       .  A
O313        C327   1.262       .  A
O314        C319   1.272       .  A
O315        C318   1.278       .  A
O316      Fe1335   2.032       .  S
O316        C328   1.262       .  A
O317        C330   1.274       .  A
C318        O323   1.264       .  A
C318        C371   1.480       .  S
C319        C354   1.490       .  S
O321        C324   1.268       .  A
O322        C324   1.281       .  A
C324        C721   1.494       .  S
O325        C330   1.270       .  A
O326      Fe1334   2.120       .  S
O326        C328   1.278       .  A
C327        O329   1.276       .  A
C327        C536   1.463       .  S
C328        C382   1.490       .  S
C330        C480   1.497       .  S
Fe331       O347   2.131       .  S
Fe331       O337   2.054       .  S
Fe331       O344   2.062       .  S
Fe331       O336   2.119       .  S
Fe331       O342   1.930       .  S
Fe332       O339   2.035       .  S
Fe332       O343   2.106       .  S
Fe332       O348   2.019       .  S
Fe332      O1359   2.124   1_554  S
Fe332       O342   1.931       .  S
Fe333       O338   2.113       .  S
Fe333       O345   2.098       .  S
Fe333       O334   2.033       .  S
Fe333      O1375   2.031   1_554  S
Fe333       O342   1.935       .  S
O334        C341   1.266       .  A
O335      Fe1356   2.109       .  S
O335        C349   1.275       .  A
O336        C341   1.283       .  A
O337        C340   1.269       .  A
O338        C350   1.277       .  A
O339        C352   1.268       .  A
C340        O345   1.276       .  A
C340        C357   1.490       .  S
C341        C396   1.483       .  S
O343        C346   1.277       .  A
O344        C346   1.268       .  A
C346        C441   1.505       .  S
O347        C352   1.285       .  A
O348        C350   1.261       .  A
C349        O351   1.261       .  A
C349        C410   1.491       .  S
C350        C567   1.478       .  S
O351      Fe1357   2.035       .  S
C352        C679   1.497       .  S
C353        C354   1.405       .  A
C353        C358   1.406   1_455  A
C353        H360   1.084       .  S
C354        C355   1.413       .  A
C355        C356   1.406   1_455  A
C355        N362   1.432       .  S
C356        C357   1.406       .  A
C356        H361   1.084       .  S
C357        C358   1.416       .  A
C358        N359   1.438       .  S
N359        H363   1.046       .  S
N359        H364   1.046       .  S
N362        H365   1.046       .  S
N362        H366   1.046       .  S
C367        C368   1.411       .  A
C367        C372   1.398       .  A
C367        H374   1.084       .  S
C368        C369   1.415       .  A
C369        C370   1.406       .  A
C369        N376   1.438       .  S
C370        C371   1.406       .  A
C370        H375   1.084       .  S
C371        C372   1.411       .  A
C372        N373   1.433       .  S
N373        H377   1.045       .  S
N373        H378   1.046       .  S
N376        H379   1.046       .  S
N376        H380   1.046       .  S
C381        C382   1.410       .  A
C381        C386   1.407       .  A
C381        H388   1.083       .  S
C382        C383   1.408       .  A
C383        C384   1.409       .  A
C383        N390   1.438       .  S
C384        C385   1.414       .  A
C384        H389   1.083       .  S
C385        C386   1.412       .  A
C386        N387   1.438       .  S
N387        H391   1.046       .  S
N387        H392   1.046       .  S
N390        H393   1.046       .  S
N390        H394   1.046       .  S
C395        C396   1.399       .  A
C395        C400   1.407       .  A
C395        H402   1.084       .  S
C396        C397   1.413       .  A
C397        C398   1.404       .  A
C397        N404   1.433       .  S
C398        C399   1.405       .  A
C398        H403   1.083       .  S
C399        C400   1.423       .  A
C400        N401   1.437       .  S
N401        H405   1.045       .  S
N401        H406   1.046       .  S
N404        H407   1.046       .  S
N404        H408   1.046       .  S
C409        C410   1.407       .  A
C409        C414   1.405       .  A
C409        H416   1.083       .  S
C410        C411   1.419       .  A
C411        C412   1.403       .  A
C411        N418   1.433       .  S
C412        C413   1.398       .  A
C412        H417   1.084       .  S
C413        C414   1.410       .  A
C414        N415   1.433       .  S
N415        H419   1.046       .  S
N415        H420   1.046       .  S
N418        H421   1.046       .  S
N418        H422   1.046       .  S
C423        C424   1.407       .  A
C423        C428   1.402   1_655  A
C423        H430   1.084       .  S
C424        C425   1.418       .  A
C425        C426   1.399   1_655  A
C425        N432   1.431       .  S
C426        C427   1.405       .  A
C426        H431   1.084       .  S
C427        C428   1.412       .  A
C428        N429   1.433       .  S
N429        H433   1.046       .  S
N429        H434   1.046       .  S
N432        H435   1.044       .  S
N432        H436   1.044       .  S
C437        C438   1.406       .  A
C437        C442   1.409       .  A
C437        H444   1.084       .  S
C438        C439   1.416       .  A
C439        C440   1.412       .  A
C439        N446   1.437       .  S
C440        C441   1.408       .  A
C440        H445   1.083       .  S
C441        C442   1.418       .  A
C442        N443   1.433       .  S
N443        H447   1.046       .  S
N443        H448   1.046       .  S
N446        H449   1.046       .  S
N446        H450   1.046       .  S
C451        C452   1.409       .  A
C451        C456   1.400       .  A
C451        H458   1.084       .  S
C452        C453   1.414       .  A
C453        C454   1.390       .  A
C453        N460   1.432       .  S
C454        C455   1.405       .  A
C454        H459   1.084       .  S
C455        C456   1.408       .  A
C456        N457   1.433       .  S
N457        H461   1.046       .  S
N457        H462   1.046       .  S
N460        H463   1.043       .  S
N460        H464   1.045       .  S
C465        C466   1.406       .  A
C465        C470   1.410       .  A
C465        H472   1.084       .  S
C466        C467   1.414       .  A
C467        C468   1.407       .  A
C467        N474   1.438       .  S
C468        C469   1.405       .  A
C468        H473   1.084       .  S
C469        C470   1.414       .  A
C470        N471   1.438       .  S
N471        H475   1.046       .  S
N471        H476   1.046       .  S
N474        H477   1.046       .  S
N474        H478   1.046       .  S
C479        C480   1.406       .  A
C479        C484   1.407       .  A
C479        H486   1.084       .  S
C480        C481   1.415       .  A
C481        C482   1.409       .  A
C481        N488   1.433       .  S
C482        C483   1.409       .  A
C482        H487   1.083       .  S
C483        C484   1.415       .  A
C484        N485   1.432       .  S
N485        H489   1.046       .  S
N485        H490   1.045       .  S
N488        H491   1.046       .  S
N488        H492   1.045       .  S
C493        C494   1.402       .  A
C493        C498   1.399       .  A
C493        H500   1.084       .  S
C494        C495   1.410       .  A
C495        C496   1.399       .  A
C495        N502   1.433       .  S
C496        C497   1.402       .  A
C496        H501   1.084       .  S
C497        C498   1.410       .  A
C498        N499   1.433       .  S
N499        H503   1.046       .  S
N499        H504   1.046       .  S
N502        H505   1.046       .  S
N502        H506   1.045       .  S
C507        C508   1.413       .  A
C507        C512   1.406       .  A
C507        H514   1.083       .  S
C508        C509   1.418       .  A
C509        C510   1.400       .  A
C509        N516   1.432       .  S
C510        C511   1.407       .  A
C510        H515   1.084       .  S
C511        C512   1.408       .  A
C512        N513   1.438       .  S
N513        H517   1.046       .  S
N513        H518   1.045       .  S
N516        H519   1.045       .  S
N516        H520   1.045       .  S
C521        C522   1.413       .  A
C521        C526   1.407       .  A
C521        H528   1.083       .  S
C522        C523   1.412       .  A
C523        C524   1.406       .  A
C523        N530   1.432       .  S
C524        C525   1.408       .  A
C524        H529   1.084       .  S
C525        C526   1.408       .  A
C526        N527   1.438       .  S
N527        H531   1.046       .  S
N527        H532   1.046       .  S
N530        H533   1.046       .  S
N530        H534   1.046       .  S
C535        C540   1.401       .  A
C535       C1560   1.400       .  A
C535        H542   1.084       .  S
C536        C537   1.410       .  A
C536       C1559   1.401   1_554  A
C537       C1562   1.399       .  A
C537        N544   1.438       .  S
C538        C539   1.403       .  A
C538       C1561   1.404       .  A
C538        H543   1.084       .  S
C539        C540   1.415       .  A
C540        N541   1.439       .  S
N541        H545   1.046       .  S
N541        H546   1.045       .  S
N544        H547   1.046       .  S
N544        H548   1.046       .  S
C549        C550   1.407       .  A
C549        C554   1.407       .  A
C549        H556   1.084       .  S
C550        C551   1.418       .  A
C551        C552   1.407       .  A
C551        N558   1.438       .  S
C552        C553   1.405       .  A
C552        H557   1.083       .  S
C553        C554   1.414       .  A
C554        N555   1.432       .  S
N555        H559   1.046       .  S
N555        H560   1.046       .  S
N558        H561   1.046       .  S
N558        H562   1.046       .  S
C563        C564   1.408       .  A
C563        C568   1.400       .  A
C563        H570   1.084       .  S
C564       C1589   1.414       .  A
C565        C566   1.393       .  A
C565       C1588   1.414   1_554  A
C565        N572   1.432       .  S
C566        C567   1.406       .  A
C566        H571   1.084       .  S
C567       C1592   1.409   1_554  A
C568       C1591   1.408       .  A
C568        N569   1.433       .  S
N569        H573   1.045       .  S
N569        H574   1.045       .  S
N572        H575   1.045   1_554  S
N572        H576   1.043       .  S
C577        C578   1.409       .  A
C577        C582   1.409       .  A
C577        H584   1.084       .  S
C578        C579   1.418       .  A
C579        C580   1.412       .  A
C579        N586   1.438       .  S
C580        C581   1.409       .  A
C580        H585   1.083       .  S
C581        C582   1.414       .  A
C582        N583   1.432       .  S
N583        H587   1.046       .  S
N583        H588   1.046       .  S
N586        H589   1.045       .  S
N586        H590   1.046       .  S
C591        C592   1.413       .  A
C591        C596   1.406       .  A
C591        H598   1.083       .  S
C592        C593   1.414       .  A
C593        C594   1.404       .  A
C593        N600   1.432       .  S
C594        C595   1.406       .  A
C594        H599   1.084       .  S
C595        C596   1.406       .  A
C596        N597   1.432       .  S
N597        H601   1.046       .  S
N597        H602   1.046       .  S
N600        H603   1.045       .  S
N600        H604   1.046       .  S
C605        C606   1.412       .  A
C605        C610   1.409       .  A
C605        H612   1.083       .  S
C606        C607   1.413       .  A
C607        C608   1.400       .  A
C607        N614   1.433       .  S
C608        C609   1.412       .  A
C608        H613   1.084       .  S
C609        C610   1.412       .  A
C610        N611   1.438       .  S
N611        H615   1.046       .  S
N611        H616   1.046       .  S
N614        H617   1.046       .  S
N614        H618   1.044       .  S
C619        C620   1.406       .  A
C619        C624   1.410       .  A
C619        H626   1.084       .  S
C620        C621   1.414       .  A
C621        C622   1.406       .  A
C621        N628   1.439       .  S
C622        C623   1.406       .  A
C622        H627   1.084       .  S
C623        C624   1.415       .  A
C624        N625   1.438       .  S
N625        H629   1.046       .  S
N625        H630   1.045       .  S
N628        H631   1.046       .  S
N628        H632   1.046       .  S
C633        C634   1.404       .  A
C633        C638   1.409       .  A
C633        H640   1.083       .  S
C634        C635   1.420       .  A
C635        C636   1.405       .  A
C635        N642   1.433       .  S
C636        C637   1.400       .  A
C636        H641   1.084       .  S
C637        C638   1.417       .  A
C638        N639   1.433       .  S
N639        H643   1.046       .  S
N639        H644   1.046       .  S
N642        H645   1.046       .  S
N642        H646   1.046       .  S
C647        C648   1.402       .  A
C647        C652   1.404       .  A
C647        H654   1.083       .  S
C648        C649   1.419       .  A
C649        C650   1.406       .  A
C649        N656   1.433       .  S
C650        C651   1.402       .  A
C650        H655   1.084       .  S
C651        C652   1.417       .  A
C652        N653   1.433       .  S
N653        H657   1.046       .  S
N653        H658   1.046       .  S
N656        H659   1.046       .  S
N656        H660   1.046       .  S
C661        C662   1.407       .  A
C661        C666   1.406   1_655  A
C661        H668   1.083       .  S
C662        C663   1.414       .  A
C663        C664   1.403   1_655  A
C663        N670   1.433       .  S
C664        C665   1.407       .  A
C664        H669   1.084       .  S
C665        C666   1.414       .  A
C666        N667   1.432       .  S
N667        H671   1.046       .  S
N667        H672   1.046       .  S
N670        H673   1.046       .  S
N670        H674   1.046       .  S
C675        C680   1.408   1_565  A
C675       C1700   1.412   1_554  A
C675        H682   1.084       .  S
C676        C677   1.412       .  A
C676       C1699   1.411       .  A
C677        C678   1.407   1_565  A
C677        N684   1.438       .  S
C678       C1703   1.410       .  A
C678        H683   1.084       .  S
C679        C680   1.409       .  A
C679       C1702   1.411   1_554  A
C680        N681   1.432       .  S
N681        H685   1.046   1_545  S
N681        H686   1.046   1_545  S
N684        H687   1.046       .  S
N684        H688   1.046   1_565  S
C689        C690   1.408       .  A
C689        C694   1.407       .  A
C689        H696   1.084       .  S
C690        C691   1.407       .  A
C691        C692   1.403       .  A
C691        N698   1.433       .  S
C692        C693   1.411       .  A
C692        H697   1.083       .  S
C693        C694   1.413       .  A
C694        N695   1.438       .  S
N695        H699   1.046       .  S
N695        H700   1.046       .  S
N698        H701   1.046       .  S
N698        H702   1.046       .  S
C703        C704   1.411       .  A
C703        C708   1.403       .  A
C703        H710   1.084       .  S
C704        C705   1.409       .  A
C705        C706   1.405       .  A
C705        N712   1.438       .  S
C706        C707   1.411       .  A
C706        H711   1.083       .  S
C707        C708   1.408       .  A
C708        N709   1.433       .  S
N709        H713   1.046       .  S
N709        H714   1.046       .  S
N712        H715   1.046       .  S
N712        H716   1.046       .  S
C717        C722   1.408   1_565  A
C717       C1742   1.409   1_554  A
C717        H724   1.084       .  S
C718        C719   1.409       .  A
C718       C1741   1.411       .  A
C719        C720   1.405   1_565  A
C719        N726   1.432       .  S
C720       C1745   1.410       .  A
C720        H725   1.084       .  S
C721        C722   1.414       .  A
C721       C1744   1.410   1_554  A
C722        N723   1.438       .  S
N723        H727   1.046   1_545  S
N723        H728   1.045       .  S
N726        H729   1.046   1_565  S
N726        H730   1.046   1_565  S
C731        C732   1.406       .  A
C731        C736   1.401       .  A
C731        H738   1.084       .  S
C732        C733   1.422       .  A
C733        C734   1.408       .  A
C733        N740   1.438       .  S
C734        C735   1.400       .  A
C734        H739   1.084       .  S
C735        C736   1.408       .  A
C736        N737   1.433       .  S
N737        H741   1.045       .  S
N737        H742   1.045       .  S
N740        H743   1.046       .  S
N740        H744   1.046       .  S
C745        C746   1.412       .  A
C745        C750   1.405       .  A
C745        H752   1.083       .  S
C746        C747   1.420       .  A
C747        C748   1.400       .  A
C747        N754   1.432       .  S
C748        C749   1.405       .  A
C748        H753   1.084       .  S
C749        C750   1.408       .  A
C750        N751   1.438       .  S
N751        H755   1.046       .  S
N751        H756   1.046       .  S
N754        H757   1.045       .  S
N754        H758   1.045       .  S
C759        C760   1.406       .  A
C759        C764   1.403   1_655  A
C759        H766   1.083       .  S
C760        C761   1.415       .  A
C761        C762   1.400   1_655  A
C761        N768   1.433       .  S
C762        C763   1.406       .  A
C762        H767   1.084       .  S
C763        C764   1.413       .  A
C764       N1789   1.432       .  S
N765       C1788   1.432       .  S
N765        H769   1.045       .  S
N765        H770   1.046       .  S
N768        H771   1.046       .  S
N768        H772   1.046       .  S
C773        C778   1.405       .  A
C773       C1798   1.411   1_554  A
C773        H780   1.084       .  S
C774        C775   1.413       .  A
C774       C1797   1.412       .  A
C775        C776   1.410       .  A
C775        N782   1.437       .  S
C776       C1801   1.411       .  A
C776        H781   1.083       .  S
C777        C778   1.409       .  A
C777       C1800   1.409   1_554  A
C778        N779   1.432       .  S
N779        H783   1.046       .  S
N779        H784   1.046       .  S
N782        H785   1.045       .  S
N782        H786   1.046       .  S
C787        C792   1.397       .  A
C787       C1812   1.400       .  A
C787        H794   1.084       .  S
C788        C789   1.409       .  A
C788       C1811   1.400   1_554  A
C789        C790   1.398       .  A
C789        N796   1.434       .  S
C790       C1815   1.402   1_554  A
C790        H795   1.084       .  S
C791        C792   1.411       .  A
C791       C1814   1.401       .  A
C792        N793   1.433       .  S
N793        H797   1.046       .  S
N793        H798   1.045       .  S
N796        H799   1.046       .  S
N796        H800   1.046       .  S
C801        C802   1.411       .  A
C801        C806   1.413       .  A
C801        H808   1.083       .  S
C802        C803   1.421       .  A
C803        C804   1.405       .  A
C803        N810   1.432       .  S
C804        C805   1.409       .  A
C804        H809   1.084       .  S
C805        C806   1.417       .  A
C806        N807   1.438       .  S
N807        H811   1.046       .  S
N807        H812   1.045       .  S
N810        H813   1.045       .  S
N810        H814   1.045       .  S
C815        C816   1.411   1_556  A
C815       C1844   1.410       .  A
C815        H822   1.084       .  S
C816        C817   1.407       .  A
C817       C1842   1.403       .  A
C817        N824   1.432       .  S
C818        C819   1.411       .  A
C818       C1841   1.406       .  A
C818        H823   1.084       .  S
C819        C820   1.410       .  A
C820       C1839   1.407       .  A
C820        N821   1.432       .  S
N821        H826   1.046       .  S
N821       H1849   1.046       .  S
N824        H827   1.046       .  S
N824       H1852   1.046       .  S
H825       N1845   1.046       .  S
H828       N1848   1.046       .  S
C829        C830   1.401       .  A
C829       C1858   1.399       .  A
C829        H836   1.084       .  S
C830        C831   1.411       .  A
C831       C1856   1.398       .  A
C831        N838   1.433       .  S
C832        C833   1.401   1_556  A
C832       C1855   1.399       .  A
C832        H837   1.084       .  S
C833        C834   1.411       .  A
C834       C1853   1.399       .  A
C834        N835   1.433       .  S
N835        H839   1.046       .  S
N835        H840   1.045       .  S
N838        H841   1.046       .  S
N838        H842   1.046       .  S
C843        C844   1.410       .  A
C843        C848   1.411       .  A
C843        H850   1.084       .  S
C844        C845   1.418       .  A
C845        C846   1.412       .  A
C845        N852   1.438       .  S
C846        C847   1.409       .  A
C846        H851   1.083       .  S
C847        C848   1.415       .  A
C848        N849   1.432       .  S
N849        H853   1.045       .  S
N849        H854   1.045       .  S
N852        H855   1.045       .  S
N852        H856   1.046       .  S
C857        C858   1.406       .  A
C857        C862   1.402       .  A
C857       H1888   1.084       .  S
C858        C859   1.419       .  A
C859        C860   1.401       .  A
C859        N866   1.433       .  S
C860        C861   1.406       .  A
C860        H865   1.084       .  S
C861        C862   1.420       .  A
C862       N1887   1.433       .  S
N863       C1886   1.432       .  S
N863        H867   1.045       .  S
N863        H868   1.045       .  S
H864       C1881   1.084       .  S
N866        H869   1.044       .  S
N866        H870   1.046       .  S
C871        C872   1.403       .  A
C871        C876   1.407   1_565  A
C871        H878   1.084       .  S
C872        C873   1.422       .  A
C873        C874   1.410   1_565  A
C873        N880   1.438       .  S
C874        C875   1.402       .  A
C874        H879   1.083       .  S
C875        C876   1.417       .  A
C876        N877   1.433       .  S
N877        H881   1.046       .  S
N877        H882   1.046       .  S
N880        H883   1.046       .  S
N880        H884   1.046       .  S
C885        C886   1.401       .  A
C885        C890   1.397       .  A
C885        H892   1.084       .  S
C886        C887   1.410       .  A
C887        C888   1.398       .  A
C887        N894   1.433       .  S
C888        C889   1.401       .  A
C888        H893   1.084       .  S
C889        C890   1.408       .  A
C890        N891   1.432       .  S
N891        H895   1.044       .  S
N891        H896   1.045       .  S
N894        H897   1.046       .  S
N894        H898   1.046       .  S
C899        C900   1.408       .  A
C899        C904   1.408       .  A
C899        H906   1.083       .  S
C900        C901   1.422       .  A
C901        C902   1.410       .  A
C901        N908   1.438       .  S
C902        C903   1.404       .  A
C902        H907   1.083       .  S
C903        C904   1.413       .  A
C904        N905   1.432       .  S
N905        H909   1.046       .  S
N905        H910   1.046       .  S
N908        H911   1.046       .  S
N908        H912   1.046       .  S
C913        C914   1.411       .  A
C913        C918   1.405       .  A
C913        H920   1.083       .  S
C914        C915   1.409       .  A
C915        C916   1.404       .  A
C915        N922   1.438       .  S
C916        C917   1.410       .  A
C916        H921   1.083       .  S
C917        C918   1.410       .  A
C918        N919   1.438       .  S
N919        H923   1.046       .  S
N919        H924   1.046       .  S
N922        H925   1.046       .  S
N922        H926   1.046       .  S
C927        C928   1.408       .  A
C927        C932   1.402       .  A
C927        H934   1.084       .  S
C928        C929   1.427       .  A
C929        C930   1.401       .  A
C929        N936   1.433       .  S
C930        C931   1.398       .  A
C930        H935   1.084       .  S
C931        C932   1.414       .  A
C932        N933   1.433       .  S
N933        H937   1.044       .  S
N933        H938   1.046       .  S
N936        H939   1.046       .  S
N936        H940   1.044       .  S
C941        C942   1.400       .  A
C941        C946   1.406   1_565  A
C941        H948   1.084       .  S
C942        C943   1.423       .  A
C943        C944   1.413   1_565  A
C943        N950   1.439       .  S
C944        C945   1.403       .  A
C944        H949   1.083       .  S
C945        C946   1.419       .  A
C946        N947   1.433       .  S
N947        H951   1.045       .  S
N947        H952   1.046       .  S
N950        H953   1.046       .  S
N950        H954   1.046       .  S
C955        C956   1.399       .  A
C955        C960   1.405       .  A
C955        H962   1.084       .  S
C956        C957   1.413       .  A
C957        C958   1.405       .  A
C957        N964   1.433       .  S
C958        C959   1.405       .  A
C958        H963   1.083       .  S
C959        C960   1.421       .  A
C960        N961   1.433       .  S
N961        H965   1.046       .  S
N961        H966   1.046       .  S
N964        H967   1.046       .  S
N964        H968   1.046       .  S
C969        C970   1.410       .  A
C969        C974   1.404       .  A
C969        H976   1.083       .  S
C970        C971   1.409       .  A
C971        C972   1.403       .  A
C971        N978   1.432       .  S
C972        C973   1.409       .  A
C972        H977   1.084       .  S
C973        C974   1.410       .  A
C974        N975   1.438       .  S
N975        H979   1.046       .  S
N975        H980   1.046       .  S
N978        H981   1.046       .  S
N978        H982   1.046       .  S
C983        C984   1.406       .  A
C983        C988   1.408       .  A
C983        H990   1.084       .  S
C984        C985   1.416       .  A
C985        C986   1.403       .  A
C985        N992   1.433       .  S
C986        C987   1.405       .  A
C986        H991   1.084       .  S
C987        C988   1.415       .  A
C988        N989   1.432       .  S
N989        H993   1.046       .  S
N989        H994   1.046       .  S
N992        H995   1.046       .  S
N992        H996   1.046       .  S
C997        C998   1.401       .  A
C997       C1002   1.395       .  A
C997       H1004   1.084       .  S
C998        C999   1.412       .  A
C999       C1000   1.396       .  A
C999       N1006   1.433       .  S
C1000      C1001   1.403       .  A
C1000      H1005   1.085       .  S
C1001      C1002   1.413       .  A
C1002      N1003   1.434       .  S
N1003      H1007   1.044       .  S
N1003      H1008   1.046       .  S
N1006      H1009   1.046       .  S
N1006      H1010   1.044       .  S
C1011      C1012   1.405       .  A
C1011      C1016   1.411       .  A
C1011      H1018   1.083       .  S
C1012      C1013   1.410       .  A
C1013      C1014   1.407       .  A
C1013      N1020   1.432       .  S
C1014      C1015   1.409       .  A
C1014      H1019   1.083       .  S
C1015      C1016   1.422       .  A
C1016      N1017   1.438       .  S
N1017      H1021   1.045       .  S
N1017      H1022   1.045       .  S
N1020      H1023   1.046       .  S
N1020      H1024   1.046       .  S
Fe1025     O1041   2.066       .  S
Fe1025     O1031   2.127       .  S
Fe1025     O1038   2.135       .  S
Fe1025     O1030   2.054       .  S
Fe1025     O1036   1.930       .  S
Fe1026     O1029   2.023       .  S
Fe1026     O1033   2.093       .  S
Fe1026     O1037   2.036       .  S
Fe1026     O1042   2.109       .  S
Fe1026     O1036   1.935       .  S
Fe1027     O1045   2.104       .  S
Fe1027     O1032   2.031       .  S
Fe1027     O1039   2.027       .  S
Fe1027     O1028   2.092       .  S
Fe1027     O1036   1.933       .  S
O1028      C1035   1.276       .  A
O1029      C1043   1.261       .  A
O1030      C1035   1.269       .  A
O1031      C1034   1.284       .  A
O1032      C1044   1.262       .  A
O1033      C1046   1.274       .  A
C1034      O1039   1.264       .  A
C1034      C1980   1.485       .  S
C1035      C2008   1.495       .  S
O1037      C1040   1.268       .  A
O1038      C1040   1.287       .  A
C1040      C1966   1.498       .  S
O1041      C1046   1.268       .  A
O1042      C1044   1.275       .  A
C1043      O1045   1.277       .  A
C1043      C2025   1.465       .  S
C1044      C1994   1.490       .  S
C1046      C2039   1.496       .  S
Fe1047     O1063   2.137       .  S
Fe1047     O1053   2.052       .  S
Fe1047     O1060   2.056       .  S
Fe1047     O1052   2.123       .  S
Fe1047     O1058   1.928       .  S
Fe1048     O1051   2.121       .  S
Fe1048     O1055   2.038       .  S
Fe1048     O1059   2.106       .  S
Fe1048     O1064   2.020       .  S
Fe1048     O1058   1.931       .  S
Fe1049     O1067   2.030       .  S
Fe1049     O1054   2.104       .  S
Fe1049     O1061   2.095       .  S
Fe1049     O1050   2.031       .  S
Fe1049     O1058   1.934       .  S
O1050      C1057   1.265       .  A
O1051      C1065   1.280       .  A
O1052      C1057   1.283       .  A
O1053      C1056   1.270       .  A
O1054      C1066   1.276       .  A
O1055      C1068   1.267       .  A
C1056      O1061   1.275       .  A
C1056      C2011   1.494       .  S
C1057      C1938   1.485       .  S
O1059      C1062   1.277       .  A
O1060      C1062   1.267       .  A
C1062      C1924   1.505       .  S
O1063      C1068   1.286       .  A
O1064      C1066   1.260       .  A
C1065      O1067   1.260       .  A
C1065      C1952   1.493       .  S
C1066      C1910   1.470       .  S
C1068      C1896   1.500       .  S
Fe1069     O1085   2.072       .  S
Fe1069     O1075   2.116       .  S
Fe1069     O1082   2.125       .  S
Fe1069     O1074   2.061       .  S
Fe1069     O1080   1.929       .  S
Fe1070     O1073   2.024       .  S
Fe1070     O1077   2.090       .  S
Fe1070     O1081   2.037       .  S
Fe1070     O1080   1.938       .  S
Fe1071     O1089   2.113       .  S
Fe1071     O1083   2.034       .  S
Fe1071     O1072   2.101       .  S
Fe1071     O1080   1.930       .  S
O1072      C1079   1.278       .  A
O1073      C1087   1.263       .  A
O1074      C1079   1.270       .  A
O1075      C1078   1.280       .  A
O1076      C1088   1.263       .  A
O1077      C1090   1.271       .  A
C1078      O1083   1.264       .  A
C1078      C1955   1.477       .  S
C1079      C1882   1.500       .  S
O1081      C1084   1.269       .  A
O1082      C1084   1.285       .  A
C1084      C1840   1.494       .  S
O1085      C1090   1.270       .  A
O1086      C1088   1.276       .  A
C1087      O1089   1.281       .  A
C1087      C1857   1.469       .  S
C1088      C1941   1.494       .  S
C1090      C1868   1.498       .  S
Fe1091     O1107   2.127       .  S
Fe1091     O1097   2.073       .  S
Fe1091     O1104   2.073       .  S
Fe1091     O1096   2.114       .  S
Fe1091     O1102   1.930       .  S
Fe1092     O1099   2.035       .  S
Fe1092     O1103   2.097       .  S
Fe1092     O1108   2.021       .  S
Fe1092     O1102   1.929       .  S
Fe1093     O1098   2.101       .  S
Fe1093     O1105   2.094       .  S
Fe1093     O1094   2.027       .  S
Fe1093     O1102   1.929       .  S
O1094      C1101   1.263       .  A
O1095      C1109   1.280       .  A
O1096      C1101   1.280       .  A
O1097      C1100   1.275       .  A
O1098      C1110   1.276       .  A
O1099      C1112   1.268       .  A
C1100      O1105   1.275       .  A
C1100      C1885   1.503       .  S
C1101      C1997   1.476       .  S
O1103      C1106   1.274       .  A
O1104      C1106   1.271       .  A
C1106      C1829   1.505       .  S
O1107      C1112   1.285       .  A
O1108      C1110   1.259       .  A
C1109      O1111   1.260       .  A
C1109      C1983   1.496       .  S
C1110      C1812   1.465       .  S
C1112      C1801   1.494       .  S
Fe1113     O1129   2.061       .  S
Fe1113     O1119   2.104       .  S
Fe1113     O1126   2.116       .  S
Fe1113     O1118   2.058       .  S
Fe1113     O1124   1.933       .  S
Fe1114     O1117   2.021       .  S
Fe1114     O1121   2.100       .  S
Fe1114     O1125   2.037       .  S
Fe1114     O1124   1.937       .  S
Fe1115     O1133   2.099       .  S
Fe1115     O1127   2.038       .  S
Fe1115     O1116   2.094       .  S
Fe1115     O1124   1.936       .  S
O1116      C1123   1.276       .  A
O1117      C1131   1.261       .  A
O1118      C1123   1.271       .  A
O1119      C1122   1.278       .  A
O1120      C1132   1.262       .  A
O1121      C1134   1.275       .  A
C1122      O1127   1.266       .  A
C1122      C1759   1.471       .  S
C1123      C1787   1.490       .  S
O1125      C1128   1.268       .  A
O1126      C1128   1.282       .  A
C1128      C1742   1.490       .  S
O1129      C1134   1.268       .  A
O1130      C1132   1.273       .  A
C1131      O1133   1.275       .  A
C1131      C1815   1.462       .  S
C1132      C1770   1.491       .  S
C1134      C2036   1.504       .  S
Fe1135     O1151   2.125       .  S
Fe1135     O1141   2.052       .  S
Fe1135     O1148   2.058       .  S
Fe1135     O1140   2.113       .  S
Fe1135     O1146   1.929       .  S
Fe1136     O1143   2.041       .  S
Fe1136     O1147   2.103       .  S
Fe1136     O1152   2.018       .  S
Fe1136     O1146   1.933       .  S
Fe1137     O1142   2.113       .  S
Fe1137     O1149   2.103       .  S
Fe1137     O1138   2.032       .  S
Fe1137     O1146   1.932       .  S
O1138      C1145   1.264       .  A
O1139      C1153   1.277       .  A
O1140      C1145   1.280       .  A
O1141      C1144   1.270       .  A
O1142      C1154   1.279       .  A
O1143      C1156   1.268       .  A
C1144      O1149   1.279       .  A
C1144      C1784   1.490       .  S
C1145      C1714   1.481       .  S
O1147      C1150   1.276       .  A
O1148      C1150   1.268       .  A
C1150      C1927   1.497       .  S
O1151      C1156   1.284       .  A
O1152      C1154   1.260       .  A
C1153      O1155   1.263       .  A
C1153      C1728   1.496       .  S
C1154      C1854   1.468       .  S
C1156      C1700   1.498       .  S
Fe1157     O1173   2.064       .  S
Fe1157     O1163   2.118       .  S
Fe1157     O1170   2.125       .  S
Fe1157     O1162   2.053       .  S
Fe1157     O1168   1.929       .  S
Fe1158     O1161   2.021       .  S
Fe1158     O1165   2.096       .  S
Fe1158     O1169   2.034       .  S
Fe1158     O1174   2.109       .  S
Fe1158     O1168   1.931       .  S
Fe1159     O1177   2.106       .  S
Fe1159     O1164   2.035       .  S
Fe1159     O1171   2.037       .  S
Fe1159     O1160   2.094       .  S
Fe1159     O1168   1.930       .  S
O1160      C1167   1.276       .  A
O1161      C1175   1.261       .  A
O1162      C1167   1.270       .  A
O1163      C1166   1.281       .  A
O1164      C1176   1.263       .  A
O1165      C1178   1.274       .  A
C1166      O1171   1.266       .  A
C1166      C1731   1.485       .  S
C1167      C1686   1.492       .  S
O1169      C1172   1.266       .  A
O1170      C1172   1.284       .  A
C1172      C1672   1.490       .  S
O1173      C1178   1.270       .  A
O1174      C1176   1.276       .  A
C1175      O1177   1.278       .  A
C1175      C1913   1.470       .  S
C1176      C1717   1.491       .  S
C1178      C1871   1.501       .  S
Fe1179     O1195   2.122       .  S
Fe1179     O1185   2.056       .  S
Fe1179     O1192   2.066       .  S
Fe1179     O1184   2.110       .  S
Fe1179     O1190   1.931       .  S
Fe1180     O1183   2.107       .  S
Fe1180     O1187   2.040       .  S
Fe1180     O1191   2.098       .  S
Fe1180     O1196   2.026       .  S
Fe1180     O1190   1.933       .  S
Fe1181     O1199   2.030       .  S
Fe1181     O1186   2.099       .  S
Fe1181     O1193   2.093       .  S
Fe1181     O1182   2.026       .  S
Fe1181     O1190   1.931       .  S
O1182      C1189   1.263       .  A
O1183      C1197   1.277       .  A
O1184      C1189   1.279       .  A
O1185      C1188   1.272       .  A
O1186      C1198   1.276       .  A
O1187      C1200   1.268       .  A
C1188      O1193   1.275       .  A
C1188      C1689   1.493       .  S
C1189      C1773   1.475       .  S
O1191      C1194   1.273       .  A
O1192      C1194   1.271       .  A
C1194      C1826   1.506       .  S
O1195      C1200   1.283       .  A
O1196      C1198   1.261       .  A
C1197      O1199   1.262       .  A
C1197      C1756   1.486       .  S
C1198      C2022   1.464       .  S
C1200      C1661   1.493       .  S
Fe1201     O1217   2.064       .  S
Fe1201     O1207   2.116       .  S
Fe1201     O1214   2.132       .  S
Fe1201     O1206   2.053       .  S
Fe1201     O1212   1.938       .  S
Fe1202     O1205   2.024       .  S
Fe1202     O1209   2.098       .  S
Fe1202     O1213   2.033       .  S
Fe1202     O1212   1.930       .  S
Fe1203     O1221   2.108       .  S
Fe1203     O1215   2.022       .  S
Fe1203     O1204   2.097       .  S
Fe1203     O1212   1.931       .  S
O1204      C1211   1.278       .  A
O1205      C1219   1.263       .  A
O1206      C1211   1.270       .  A
O1207      C1210   1.280       .  A
O1208      C1220   1.264       .  A
O1209      C1222   1.274       .  A
C1210      O1215   1.262       .  A
C1210      C1619   1.477       .  S
C1211      C1644   1.497       .  S
O1213      C1216   1.268       .  A
O1214      C1216   1.285       .  A
C1216      C1843   1.498       .  S
O1217      C1222   1.269       .  A
O1218      C1220   1.278       .  A
C1219      O1221   1.279       .  A
C1219      C1588   1.479       .  S
C1220      C1630   1.492       .  S
C1222      C1602   1.498       .  S
Fe1223     O1239   2.122       .  S
Fe1223     O1229   2.052       .  S
Fe1223     O1236   2.060       .  S
Fe1223     O1228   2.113       .  S
Fe1223     O1234   1.928       .  S
Fe1224     O1231   2.037       .  S
Fe1224     O1235   2.104       .  S
Fe1224     O1240   2.019       .  S
Fe1224     O1234   1.935       .  S
Fe1225     O1230   2.104       .  S
Fe1225     O1237   2.097       .  S
Fe1225     O1226   2.034       .  S
Fe1225     O1234   1.931       .  S
O1226      C1233   1.265       .  A
O1227      C1241   1.276       .  A
O1228      C1233   1.281       .  A
O1229      C1232   1.270       .  A
O1230      C1242   1.278       .  A
O1231      C1244   1.269       .  A
C1232      O1237   1.276       .  A
C1232      C1647   1.495       .  S
C1233      C1535   1.480       .  S
O1235      C1238   1.276       .  A
O1236      C1238   1.267       .  A
C1238      C1574   1.503       .  S
O1239      C1244   1.284       .  A
O1240      C1242   1.261       .  A
C1241      O1243   1.263       .  A
C1241      C1546   1.486       .  S
C1242      C1563   1.464       .  S
C1244      C1798   1.495       .  S
Fe1245     O1261   2.067       .  S
Fe1245     O1251   2.106       .  S
Fe1245     O1258   2.127       .  S
Fe1245     O1250   2.056       .  S
Fe1245     O1256   1.933       .  S
Fe1246     O1249   2.029       .  S
Fe1246     O1253   2.090       .  S
Fe1246     O1257   2.040       .  S
Fe1246     O1262   2.108       .  S
Fe1246     O1256   1.936       .  S
Fe1247     O1265   2.100       .  S
Fe1247     O1252   2.036       .  S
Fe1247     O1259   2.032       .  S
Fe1247     O1248   2.092       .  S
Fe1247     O1256   1.935       .  S
O1248      C1255   1.276       .  A
O1249      C1263   1.263       .  A
O1250      C1255   1.271       .  A
O1251      C1254   1.279       .  A
O1252      C1264   1.263       .  A
O1253      C1266   1.272       .  A
C1254      O1259   1.265       .  A
C1254      C1549   1.483       .  S
C1255      C1490   1.493       .  S
O1257      C1260   1.269       .  A
O1258      C1260   1.285       .  A
C1260      C1969   1.495       .  S
O1261      C1266   1.269       .  A
O1262      C1264   1.274       .  A
C1263      O1265   1.277       .  A
C1263      C1518   1.463       .  S
C1264      C1532   1.496       .  S
C1266      C1507   1.499       .  S
Fe1267     O1283   2.142       .  S
Fe1267     O1273   2.058       .  S
Fe1267     O1280   2.055       .  S
Fe1267     O1272   2.130       .  S
Fe1267     O1278   1.922       .  S
Fe1268     O1271   2.109       .  S
Fe1268     O1275   2.034       .  S
Fe1268     O1279   2.098       .  S
Fe1268     O1284   2.019       .  S
Fe1268     O1278   1.939       .  S
Fe1269     O1287   2.030       .  S
Fe1269     O1274   2.095       .  S
Fe1269     O1281   2.086       .  S
Fe1269     O1270   2.033       .  S
Fe1269     O1278   1.931       .  S
O1270      C1277   1.266       .  A
O1271      C1285   1.276       .  A
O1272      C1277   1.285       .  A
O1273      C1276   1.271       .  A
O1274      C1286   1.274       .  A
O1275      C1288   1.266       .  A
C1276      O1281   1.273       .  A
C1276      C1493   1.493       .  S
C1277      C1633   1.500       .  S
O1279      C1282   1.274       .  A
O1280      C1282   1.267       .  A
C1282      C1462   1.501       .  S
O1283      C1288   1.288       .  A
O1284      C1286   1.261       .  A
C1285      O1287   1.262       .  A
C1285      C1616   1.488       .  S
C1286      C1476   1.471       .  S
C1288      C1899   1.501       .  S
Fe1289     O1305   2.067       .  S
Fe1289     O1295   2.123       .  S
Fe1289     O1302   2.134       .  S
Fe1289     O1294   2.057       .  S
Fe1289     O1300   1.930       .  S
Fe1290     O1293   2.013       .  S
Fe1290     O1297   2.098       .  S
Fe1290     O1301   2.024       .  S
Fe1290     O1306   2.120       .  S
Fe1290     O1300   1.933       .  S
Fe1291     O1309   2.095       .  S
Fe1291     O1296   2.034       .  S
Fe1291     O1303   2.034       .  S
Fe1291     O1292   2.080       .  S
Fe1291     O1300   1.932       .  S
O1292      C1299   1.271       .  A
O1293      C1307   1.261       .  A
O1294      C1299   1.270       .  A
O1295      C1298   1.284       .  A
O1296      C1308   1.260       .  A
O1297      C1310   1.274       .  A
C1298      O1303   1.265       .  A
C1298      C1437   1.481       .  S
C1299      C1448   1.485       .  S
O1301      C1304   1.266       .  A
O1302      C1304   1.287       .  A
C1304      C1675   1.494       .  S
O1305      C1310   1.269       .  A
O1306      C1308   1.277       .  A
C1307      O1309   1.275       .  A
C1307      C1479   1.466       .  S
C1308      C1423   1.493       .  S
C1310      C1605   1.503       .  S
Fe1311     O1327   2.123       .  S
Fe1311     O1317   2.053       .  S
Fe1311     O1324   2.066       .  S
Fe1311     O1316   2.105       .  S
Fe1311     O1322   1.933       .  S
Fe1312     O1315   2.115       .  S
Fe1312     O1319   2.035       .  S
Fe1312     O1323   2.100       .  S
Fe1312     O1328   2.019       .  S
Fe1312     O1322   1.932       .  S
Fe1313     O1331   2.036       .  S
Fe1313     O1318   2.106       .  S
Fe1313     O1325   2.087       .  S
Fe1313     O1314   2.035       .  S
Fe1313     O1322   1.936       .  S
O1314      C1321   1.267       .  A
O1315      C1329   1.277       .  A
O1316      C1321   1.279       .  A
O1317      C1320   1.270       .  A
O1318      C1330   1.277       .  A
O1319      C1332   1.268       .  A
C1320      O1325   1.275       .  A
C1320      C1451   1.482       .  S
C1321      C1409   1.483       .  S
O1323      C1326   1.275       .  A
O1324      C1326   1.268       .  A
C1326      C1577   1.501       .  S
O1327      C1332   1.284       .  A
O1328      C1330   1.260       .  A
C1329      O1331   1.263       .  A
C1329      C1392   1.495       .  S
C1330      C1521   1.464       .  S
C1332      C1658   1.492       .  S
Fe1333     O1349   2.059       .  S
Fe1333     O1339   2.115       .  S
Fe1333     O1346   2.118       .  S
Fe1333     O1338   2.057       .  S
Fe1333     O1344   1.933       .  S
Fe1334     O1337   2.025       .  S
Fe1334     O1341   2.100       .  S
Fe1334     O1345   2.038       .  S
Fe1334     O1344   1.935       .  S
Fe1335     O1353   2.109       .  S
Fe1335     O1347   2.033       .  S
Fe1335     O1336   2.099       .  S
Fe1335     O1344   1.925       .  S
O1336      C1343   1.278       .  A
O1337      C1351   1.262       .  A
O1338      C1343   1.272       .  A
O1339      C1342   1.279       .  A
O1340      C1352   1.264       .  A
O1341      C1354   1.275       .  A
C1342      O1347   1.264       .  A
C1342      C1395   1.483       .  S
C1343      C1378   1.496       .  S
O1345      C1348   1.268       .  A
O1346      C1348   1.282       .  A
C1348      C1745   1.490       .  S
O1349      C1354   1.270       .  A
O1350      C1352   1.276       .  A
C1351      O1353   1.279       .  A
C1351      C1560   1.471       .  S
C1352      C1406   1.488       .  S
C1354      C1504   1.497       .  S
Fe1355     O1371   2.120       .  S
Fe1355     O1361   2.051       .  S
Fe1355     O1368   2.059       .  S
Fe1355     O1360   2.113       .  S
Fe1355     O1366   1.930       .  S
Fe1356     O1363   2.026       .  S
Fe1356     O1367   2.096       .  S
Fe1356     O1372   2.015       .  S
Fe1356     O1366   1.935       .  S
Fe1357     O1362   2.112       .  S
Fe1357     O1369   2.099       .  S
Fe1357     O1358   2.037       .  S
Fe1357     O1366   1.929       .  S
O1358      C1365   1.266       .  A
O1359      C1373   1.280       .  A
O1360      C1365   1.282       .  A
O1361      C1364   1.268       .  A
O1362      C1374   1.279       .  A
O1363      C1376   1.267       .  A
C1364      O1369   1.277       .  A
C1364      C1381   1.494       .  S
C1365      C1420   1.486       .  S
O1367      C1370   1.274       .  A
O1368      C1370   1.267       .  A
C1370      C1465   1.493       .  S
O1371      C1376   1.284       .  A
O1372      C1374   1.263       .  A
C1373      O1375   1.261       .  A
C1373      C1434   1.495       .  S
C1374      C1591   1.474       .  S
C1376      C1703   1.487       .  S
C1377      C1378   1.407       .  A
C1377      C1382   1.408   1_455  A
C1377      H1384   1.083       .  S
C1378      C1379   1.416       .  A
C1379      C1380   1.409   1_455  A
C1379      N1386   1.438       .  S
C1380      C1381   1.405       .  A
C1380      H1385   1.083       .  S
C1381      C1382   1.417       .  A
C1382      N1383   1.439       .  S
N1383      H1387   1.046       .  S
N1383      H1388   1.046       .  S
N1386      H1389   1.045       .  S
N1386      H1390   1.046       .  S
C1391      C1392   1.412       .  A
C1391      C1396   1.400       .  A
C1391      H1398   1.084       .  S
C1392      C1393   1.416       .  A
C1393      C1394   1.407       .  A
C1393      N1400   1.438       .  S
C1394      C1395   1.406       .  A
C1394      H1399   1.084       .  S
C1395      C1396   1.411       .  A
C1396      N1397   1.433       .  S
N1397      H1401   1.045       .  S
N1397      H1402   1.045       .  S
N1400      H1403   1.046       .  S
N1400      H1404   1.046       .  S
C1405      C1406   1.411       .  A
C1405      C1410   1.406       .  A
C1405      H1412   1.083       .  S
C1406      C1407   1.410       .  A
C1407      C1408   1.401       .  A
C1407      N1414   1.432       .  S
C1408      C1409   1.406       .  A
C1408      H1413   1.084       .  S
C1409      C1410   1.411       .  A
C1410      N1411   1.438       .  S
N1411      H1415   1.046       .  S
N1411      H1416   1.046       .  S
N1414      H1417   1.046       .  S
N1414      H1418   1.046       .  S
C1419      C1420   1.399       .  A
C1419      C1424   1.402       .  A
C1419      H1426   1.084       .  S
C1420      C1421   1.415       .  A
C1421      C1422   1.407       .  A
C1421      N1428   1.433       .  S
C1422      C1423   1.405       .  A
C1422      H1427   1.084       .  S
C1423      C1424   1.420       .  A
C1424      N1425   1.433       .  S
N1425      H1429   1.046       .  S
N1425      H1430   1.046       .  S
N1428      H1431   1.046       .  S
N1428      H1432   1.046       .  S
C1433      C1434   1.406       .  A
C1433      C1438   1.407       .  A
C1433      H1440   1.083       .  S
C1434      C1435   1.421       .  A
C1435      C1436   1.404       .  A
C1435      N1442   1.433       .  S
C1436      C1437   1.398       .  A
C1436      H1441   1.084       .  S
C1437      C1438   1.412       .  A
C1438      N1439   1.433       .  S
N1439      H1443   1.046       .  S
N1439      H1444   1.046       .  S
N1442      H1445   1.046       .  S
N1442      H1446   1.046       .  S
C1447      C1448   1.405       .  A
C1447      C1452   1.401   1_655  A
C1447      H1454   1.084       .  S
C1448      C1449   1.419       .  A
C1449      C1450   1.401   1_655  A
C1449      N1456   1.433       .  S
C1450      C1451   1.404       .  A
C1450      H1455   1.084       .  S
C1451      C1452   1.410       .  A
C1452      N1453   1.433       .  S
N1453      H1457   1.046       .  S
N1453      H1458   1.046       .  S
N1456      H1459   1.046       .  S
N1456      H1460   1.044       .  S
C1461      C1462   1.409       .  A
C1461      C1466   1.408       .  A
C1461      H1468   1.083       .  S
C1462      C1463   1.421       .  A
C1463      C1464   1.408       .  A
C1463      N1470   1.438       .  S
C1464      C1465   1.403       .  A
C1464      H1469   1.084       .  S
C1465      C1466   1.412       .  A
C1466      N1467   1.432       .  S
N1467      H1471   1.046       .  S
N1467      H1472   1.046       .  S
N1470      H1473   1.045       .  S
N1470      H1474   1.046       .  S
C1475      C1476   1.408       .  A
C1475      C1480   1.397       .  A
C1475      H1482   1.084       .  S
C1476      C1477   1.415       .  A
C1477      C1478   1.388       .  A
C1477      N1484   1.431       .  S
C1478      C1479   1.403       .  A
C1478      H1483   1.085       .  S
C1479      C1480   1.408       .  A
C1480      N1481   1.433       .  S
N1481      H1485   1.046       .  S
N1481      H1486   1.046       .  S
N1484      H1487   1.042       .  S
N1484      H1488   1.045       .  S
C1489      C1490   1.407       .  A
C1489      C1494   1.410       .  A
C1489      H1496   1.083       .  S
C1490      C1491   1.416       .  A
C1491      C1492   1.404       .  A
C1491      N1498   1.438       .  S
C1492      C1493   1.405       .  A
C1492      H1497   1.083       .  S
C1493      C1494   1.418       .  A
C1494      N1495   1.438       .  S
N1495      H1499   1.046       .  S
N1495      H1500   1.046       .  S
N1498      H1501   1.046       .  S
N1498      H1502   1.046       .  S
C1503      C1504   1.407       .  A
C1503      C1508   1.407       .  A
C1503      H1510   1.084       .  S
C1504      C1505   1.414       .  A
C1505      C1506   1.409       .  A
C1505      N1512   1.432       .  S
C1506      C1507   1.408       .  A
C1506      H1511   1.083       .  S
C1507      C1508   1.416       .  A
C1508      N1509   1.433       .  S
N1509      H1513   1.045       .  S
N1509      H1514   1.045       .  S
N1512      H1515   1.045       .  S
N1512      H1516   1.045       .  S
C1517      C1518   1.401       .  A
C1517      C1522   1.397       .  A
C1517      H1524   1.084       .  S
C1518      C1519   1.408       .  A
C1519      C1520   1.400       .  A
C1519      N1526   1.433       .  S
C1520      C1521   1.403       .  A
C1520      H1525   1.084       .  S
C1521      C1522   1.409       .  A
C1522      N1523   1.433       .  S
N1523      H1527   1.046       .  S
N1523      H1528   1.046       .  S
N1526      H1529   1.046       .  S
N1526      H1530   1.045       .  S
C1531      C1532   1.413       .  A
C1531      C1536   1.406       .  A
C1531      H1538   1.083       .  S
C1532      C1533   1.421       .  A
C1533      C1534   1.401       .  A
C1533      N1540   1.432       .  S
C1534      C1535   1.405       .  A
C1534      H1539   1.084       .  S
C1535      C1536   1.407       .  A
C1536      N1537   1.438       .  S
N1537      H1541   1.046       .  S
N1537      H1542   1.046       .  S
N1540      H1543   1.045       .  S
N1540      H1544   1.045       .  S
C1545      C1546   1.410       .  A
C1545      C1550   1.401       .  A
C1545      H1552   1.084       .  S
C1546      C1547   1.412       .  A
C1547      C1548   1.405       .  A
C1547      N1554   1.438       .  S
C1548      C1549   1.408       .  A
C1548      H1553   1.083       .  S
C1549      C1550   1.406       .  A
C1550      N1551   1.432       .  S
N1551      H1555   1.046       .  S
N1551      H1556   1.046       .  S
N1554      H1557   1.046       .  S
N1554      H1558   1.046       .  S
C1559      C1564   1.401       .  A
C1559      H1566   1.084       .  S
C1560      C1561   1.413       .  A
C1561      N1568   1.438       .  S
C1562      C1563   1.401   1_554  A
C1562      H1567   1.084       .  S
C1563      C1564   1.413       .  A
C1564      N1565   1.439       .  S
N1565      H1569   1.046       .  S
N1565      H1570   1.046       .  S
N1568      H1571   1.046       .  S
N1568      H1572   1.046       .  S
C1573      C1574   1.408       .  A
C1573      C1578   1.411       .  A
C1573      H1580   1.083       .  S
C1574      C1575   1.417       .  A
C1575      C1576   1.408       .  A
C1575      N1582   1.432       .  S
C1576      C1577   1.406       .  A
C1576      H1581   1.084       .  S
C1577      C1578   1.416       .  A
C1578      N1579   1.432       .  S
N1579      H1583   1.046       .  S
N1579      H1584   1.046       .  S
N1582      H1585   1.046       .  S
N1582      H1586   1.046       .  S
C1587      C1588   1.408       .  A
C1587      C1592   1.402       .  A
C1587      H1594   1.083       .  S
C1589      C1590   1.392       .  A
C1589      N1596   1.431       .  S
C1590      C1591   1.405       .  A
C1590      H1595   1.084       .  S
C1592      N1593   1.433       .  S
N1593      H1597   1.046       .  S
N1593      H1598   1.045       .  S
N1596      H1599   1.045       .  S
N1596      H1600   1.042       .  S
C1601      C1602   1.407       .  A
C1601      C1606   1.409       .  A
C1601      H1608   1.084       .  S
C1602      C1603   1.414       .  A
C1603      C1604   1.409       .  A
C1603      N1610   1.432       .  S
C1604      C1605   1.409       .  A
C1604      H1609   1.083       .  S
C1605      C1606   1.416       .  A
C1606      N1607   1.432       .  S
N1607      H1611   1.046       .  S
N1607      H1612   1.046       .  S
N1610      H1613   1.045       .  S
N1610      H1614   1.045       .  S
C1615      C1616   1.412       .  A
C1615      C1620   1.405       .  A
C1615      H1622   1.083       .  S
C1616      C1617   1.411       .  A
C1617      C1618   1.401       .  A
C1617      N1624   1.433       .  S
C1618      C1619   1.406       .  A
C1618      H1623   1.084       .  S
C1619      C1620   1.407       .  A
C1620      N1621   1.438       .  S
N1621      H1625   1.046       .  S
N1621      H1626   1.046       .  S
N1624      H1627   1.046       .  S
N1624      H1628   1.046       .  S
C1629      C1630   1.411       .  A
C1629      C1634   1.406       .  A
C1629      H1636   1.084       .  S
C1630      C1631   1.412       .  A
C1631      C1632   1.404       .  A
C1631      N1638   1.433       .  S
C1632      C1633   1.415       .  A
C1632      H1637   1.083       .  S
C1633      C1634   1.409       .  A
C1634      N1635   1.432       .  S
N1635      H1639   1.046       .  S
N1635      H1640   1.045       .  S
N1638      H1641   1.046       .  S
N1638      H1642   1.044       .  S
C1643      C1644   1.408       .  A
C1643      C1648   1.406       .  A
C1643      H1650   1.083       .  S
C1644      C1645   1.419       .  A
C1645      C1646   1.406       .  A
C1645      N1652   1.439       .  S
C1646      C1647   1.407       .  A
C1646      H1651   1.083       .  S
C1647      C1648   1.413       .  A
C1648      N1649   1.432       .  S
N1649      H1653   1.046       .  S
N1649      H1654   1.046       .  S
N1652      H1655   1.046       .  S
N1652      H1656   1.046       .  S
C1657      C1658   1.402       .  A
C1657      C1662   1.406       .  A
C1657      H1664   1.084       .  S
C1658      C1659   1.418       .  A
C1659      C1660   1.405       .  A
C1659      N1666   1.433       .  S
C1660      C1661   1.402       .  A
C1660      H1665   1.084       .  S
C1661      C1662   1.418       .  A
C1662      N1663   1.433       .  S
N1663      H1667   1.046       .  S
N1663      H1668   1.046       .  S
N1666      H1669   1.046       .  S
N1666      H1670   1.046       .  S
C1671      C1672   1.400       .  A
C1671      C1676   1.407       .  A
C1671      H1678   1.083       .  S
C1672      C1673   1.417       .  A
C1673      C1674   1.407       .  A
C1673      N1680   1.433       .  S
C1674      C1675   1.403       .  A
C1674      H1679   1.084       .  S
C1675      C1676   1.423       .  A
C1676      N1677   1.439       .  S
N1677      H1681   1.045       .  S
N1677      H1682   1.046       .  S
N1680      H1683   1.046       .  S
N1680      H1684   1.046       .  S
C1685      C1686   1.407       .  A
C1685      C1690   1.409   1_655  A
C1685      H1692   1.083       .  S
C1686      C1687   1.415       .  A
C1687      C1688   1.404   1_655  A
C1687      N1694   1.439       .  S
C1688      C1689   1.406       .  A
C1688      H1693   1.083       .  S
C1689      C1690   1.417       .  A
C1690      N1691   1.438       .  S
N1691      H1695   1.046       .  S
N1691      H1696   1.045       .  S
N1694      H1697   1.046       .  S
N1694      H1698   1.046       .  S
C1699      C1704   1.405   1_565  A
C1699      H1706   1.083       .  S
C1700      C1701   1.413       .  A
C1701      C1702   1.409   1_565  A
C1701      N1708   1.438       .  S
C1702      H1707   1.083       .  S
C1703      C1704   1.410       .  A
C1704      N1705   1.438       .  S
N1705      H1709   1.046   1_545  S
N1705      H1710   1.046       .  S
N1708      H1711   1.046       .  S
N1708      H1712   1.046   1_565  S
C1713      C1714   1.406       .  A
C1713      C1718   1.406       .  A
C1713      H1720   1.084       .  S
C1714      C1715   1.408       .  A
C1715      C1716   1.405       .  A
C1715      N1722   1.438       .  S
C1716      C1717   1.411       .  A
C1716      H1721   1.083       .  S
C1717      C1718   1.415       .  A
C1718      N1719   1.438       .  S
N1719      H1723   1.046       .  S
N1719      H1724   1.046       .  S
N1722      H1725   1.045       .  S
N1722      H1726   1.046       .  S
C1727      C1728   1.413       .  A
C1727      C1732   1.405       .  A
C1727      H1734   1.083       .  S
C1728      C1729   1.417       .  A
C1729      C1730   1.408       .  A
C1729      N1736   1.438       .  S
C1730      C1731   1.406       .  A
C1730      H1735   1.084       .  S
C1731      C1732   1.405       .  A
C1732      N1733   1.432       .  S
N1733      H1737   1.046       .  S
N1733      H1738   1.046       .  S
N1736      H1739   1.045       .  S
N1736      H1740   1.046       .  S
C1741      C1746   1.403   1_565  A
C1741      H1748   1.084       .  S
C1742      C1743   1.408       .  A
C1743      C1744   1.404   1_565  A
C1743      N1750   1.432       .  S
C1744      H1749   1.084       .  S
C1745      C1746   1.409       .  A
C1746      N1747   1.432       .  S
N1747      H1751   1.046   1_545  S
N1747      H1752   1.045   1_545  S
N1750      H1753   1.046   1_565  S
N1750      H1754   1.046   1_565  S
C1755      C1756   1.407       .  A
C1755      C1760   1.404       .  A
C1755      H1762   1.083       .  S
C1756      C1757   1.419       .  A
C1757      C1758   1.406       .  A
C1757      N1764   1.438       .  S
C1758      C1759   1.399       .  A
C1758      H1763   1.084       .  S
C1759      C1760   1.409       .  A
C1760      N1761   1.438       .  S
N1761      H1765   1.046       .  S
N1761      H1766   1.046       .  S
N1764      H1767   1.046       .  S
N1764      H1768   1.046       .  S
C1769      C1770   1.413       .  A
C1769      C1774   1.406       .  A
C1769      H1776   1.083       .  S
C1770      C1771   1.420       .  A
C1771      C1772   1.396       .  A
C1771      N1778   1.433       .  S
C1772      C1773   1.403       .  A
C1772      H1777   1.084       .  S
C1773      C1774   1.407       .  A
C1774      N1775   1.438       .  S
N1775      H1779   1.046       .  S
N1775      H1780   1.045       .  S
N1778      H1781   1.045       .  S
N1778      H1782   1.045       .  S
C1783      C1784   1.405       .  A
C1783      C1788   1.407   1_655  A
C1783      H1790   1.084       .  S
C1784      C1785   1.416       .  A
C1785      C1786   1.407   1_655  A
C1785      N1792   1.438       .  S
C1786      C1787   1.405       .  A
C1786      H1791   1.084       .  S
C1787      C1788   1.412       .  A
N1789      H1793   1.046       .  S
N1789      H1794   1.046       .  S
N1792      H1795   1.046       .  S
N1792      H1796   1.046       .  S
C1797      C1802   1.405       .  A
C1797      H1804   1.084       .  S
C1798      C1799   1.411       .  A
C1799      C1800   1.406       .  A
C1799      N1806   1.432       .  S
C1800      H1805   1.084       .  S
C1801      C1802   1.408       .  A
C1802      N1803   1.432       .  S
N1803      H1807   1.045       .  S
N1803      H1808   1.046       .  S
N1806      H1809   1.046       .  S
N1806      H1810   1.046       .  S
C1811      C1816   1.396       .  A
C1811      H1818   1.085       .  S
C1812      C1813   1.411       .  A
C1813      C1814   1.397       .  A
C1813      N1820   1.433       .  S
C1814      H1819   1.084       .  S
C1815      C1816   1.408       .  A
C1816      N1817   1.433       .  S
N1817      H1821   1.045       .  S
N1817      H1822   1.046       .  S
N1820      H1823   1.045       .  S
N1820      H1824   1.046       .  S
C1825      C1826   1.409       .  A
C1825      C1830   1.411       .  A
C1825      H1832   1.083       .  S
C1826      C1827   1.422       .  A
C1827      C1828   1.407       .  A
C1827      N1834   1.433       .  S
C1828      C1829   1.408       .  A
C1828      H1833   1.084       .  S
C1829      C1830   1.418       .  A
C1830      N1831   1.438       .  S
N1831      H1835   1.046       .  S
N1831      H1836   1.045       .  S
N1834      H1837   1.045       .  S
N1834      H1838   1.044       .  S
C1839      C1840   1.411       .  A
C1839      H1846   1.084       .  S
C1840      C1841   1.409       .  A
C1841      N1848   1.432       .  S
C1842      C1843   1.412   1_554  A
C1842      H1847   1.083       .  S
C1843      C1844   1.411       .  A
C1844      N1845   1.432       .  S
N1845      H1850   1.046       .  S
N1848      H1851   1.046       .  S
C1853      C1854   1.401   1_554  A
C1853      H1860   1.084       .  S
C1854      C1855   1.412       .  A
C1855      N1862   1.433       .  S
C1856      C1857   1.401       .  A
C1856      H1861   1.084       .  S
C1857      C1858   1.412       .  A
C1858      N1859   1.433       .  S
N1859      H1863   1.046       .  S
N1859      H1864   1.045       .  S
N1862      H1865   1.046       .  S
N1862      H1866   1.046       .  S
C1867      C1868   1.405       .  A
C1867      C1872   1.407       .  A
C1867      H1874   1.084       .  S
C1868      C1869   1.418       .  A
C1869      C1870   1.411       .  A
C1869      N1876   1.438       .  S
C1870      C1871   1.408       .  A
C1870      H1875   1.083       .  S
C1871      C1872   1.415       .  A
C1872      N1873   1.432       .  S
N1873      H1877   1.046       .  S
N1873      H1878   1.046       .  S
N1876      H1879   1.045       .  S
N1876      H1880   1.046       .  S
C1881      C1882   1.406       .  A
C1881      C1886   1.404       .  A
C1882      C1883   1.422       .  A
C1883      C1884   1.403       .  A
C1883      N1890   1.433       .  S
C1884      C1885   1.407       .  A
C1884      H1889   1.084       .  S
C1885      C1886   1.423       .  A
N1887      H1891   1.045       .  S
N1887      H1892   1.045       .  S
N1890      H1893   1.044       .  S
N1890      H1894   1.046       .  S
C1895      C1896   1.402       .  A
C1895      C1900   1.409   1_565  A
C1895      H1902   1.084       .  S
C1896      C1897   1.422       .  A
C1897      C1898   1.412   1_565  A
C1897      N1904   1.438       .  S
C1898      C1899   1.402       .  A
C1898      H1903   1.083       .  S
C1899      C1900   1.421       .  A
C1900      N1901   1.433       .  S
N1901      H1905   1.046       .  S
N1901      H1906   1.046       .  S
N1904      H1907   1.046       .  S
N1904      H1908   1.046       .  S
C1909      C1910   1.402       .  A
C1909      C1914   1.402       .  A
C1909      H1916   1.084       .  S
C1910      C1911   1.411       .  A
C1911      C1912   1.398       .  A
C1911      N1918   1.434       .  S
C1912      C1913   1.402       .  A
C1912      H1917   1.084       .  S
C1913      C1914   1.414       .  A
C1914      N1915   1.439       .  S
N1915      H1919   1.046       .  S
N1915      H1920   1.046       .  S
N1918      H1921   1.046       .  S
N1918      H1922   1.046       .  S
C1923      C1924   1.407       .  A
C1923      C1928   1.408       .  A
C1923      H1930   1.083       .  S
C1924      C1925   1.423       .  A
C1925      C1926   1.412       .  A
C1925      N1932   1.438       .  S
C1926      C1927   1.405       .  A
C1926      H1931   1.083       .  S
C1927      C1928   1.413       .  A
C1928      N1929   1.432       .  S
N1929      H1933   1.046       .  S
N1929      H1934   1.046       .  S
N1932      H1935   1.046       .  S
N1932      H1936   1.046       .  S
C1937      C1938   1.408       .  A
C1937      C1942   1.408       .  A
C1937      H1944   1.084       .  S
C1938      C1939   1.408       .  A
C1939      C1940   1.406       .  A
C1939      N1946   1.438       .  S
C1940      C1941   1.412       .  A
C1940      H1945   1.083       .  S
C1941      C1942   1.415       .  A
C1942      N1943   1.438       .  S
N1943      H1947   1.046       .  S
N1943      H1948   1.046       .  S
N1946      H1949   1.046       .  S
N1946      H1950   1.046       .  S
C1951      C1952   1.407       .  A
C1951      C1956   1.400       .  A
C1951      H1958   1.084       .  S
C1952      C1953   1.426       .  A
C1953      C1954   1.401       .  A
C1953      N1960   1.434       .  S
C1954      C1955   1.399       .  A
C1954      H1959   1.084       .  S
C1955      C1956   1.413       .  A
C1956      N1957   1.433       .  S
N1957      H1961   1.044       .  S
N1957      H1962   1.046       .  S
N1960      H1963   1.046       .  S
N1960      H1964   1.044       .  S
C1965      C1966   1.403       .  A
C1965      C1970   1.406   1_565  A
C1965      H1972   1.083       .  S
C1966      C1967   1.423       .  A
C1967      C1968   1.411   1_565  A
C1967      N1974   1.438       .  S
C1968      C1969   1.403       .  A
C1968      H1973   1.083       .  S
C1969      C1970   1.416       .  A
C1970      N1971   1.433       .  S
N1971      H1975   1.046       .  S
N1971      H1976   1.046       .  S
N1974      H1977   1.046       .  S
N1974      H1978   1.046       .  S
C1979      C1980   1.399       .  A
C1979      C1984   1.407       .  A
C1979      H1986   1.084       .  S
C1980      C1981   1.414       .  A
C1981      C1982   1.405       .  A
C1981      N1988   1.433       .  S
C1982      C1983   1.404       .  A
C1982      H1987   1.083       .  S
C1983      C1984   1.423       .  A
C1984      N1985   1.433       .  S
N1985      H1989   1.046       .  S
N1985      H1990   1.046       .  S
N1988      H1991   1.045       .  S
N1988      H1992   1.046       .  S
C1993      C1994   1.412       .  A
C1993      C1998   1.405       .  A
C1993      H2000   1.083       .  S
C1994      C1995   1.413       .  A
C1995      C1996   1.402       .  A
C1995      N2002   1.433       .  S
C1996      C1997   1.405       .  A
C1996      H2001   1.084       .  S
C1997      C1998   1.406       .  A
C1998      N1999   1.438       .  S
N1999      H2003   1.046       .  S
N1999      H2004   1.046       .  S
N2002      H2005   1.045       .  S
N2002      H2006   1.045       .  S
C2007      C2008   1.408       .  A
C2007      C2012   1.407       .  A
C2007      H2014   1.083       .  S
C2008      C2009   1.415       .  A
C2009      C2010   1.402       .  A
C2009      N2016   1.433       .  S
C2010      C2011   1.406       .  A
C2010      H2015   1.083       .  S
C2011      C2012   1.415       .  A
C2012      N2013   1.432       .  S
N2013      H2017   1.046       .  S
N2013      H2018   1.046       .  S
N2016      H2019   1.046       .  S
N2016      H2020   1.046       .  S
C2021      C2022   1.402       .  A
C2021      C2026   1.394       .  A
C2021      H2028   1.084       .  S
C2022      C2023   1.413       .  A
C2023      C2024   1.394       .  A
C2023      N2030   1.434       .  S
C2024      C2025   1.403       .  A
C2024      H2029   1.084       .  S
C2025      C2026   1.414       .  A
C2026      N2027   1.433       .  S
N2027      H2031   1.043       .  S
N2027      H2032   1.046       .  S
N2030      H2033   1.046       .  S
N2030      H2034   1.043       .  S
C2035      C2036   1.410       .  A
C2035      C2040   1.415       .  A
C2035      H2042   1.083       .  S
C2036      C2037   1.417       .  A
C2037      C2038   1.404       .  A
C2037      N2044   1.433       .  S
C2038      C2039   1.404       .  A
C2038      H2043   1.084       .  S
C2039      C2040   1.416       .  A
C2040      N2041   1.438       .  S
N2041      H2045   1.046       .  S
N2041      H2046   1.046       .  S
N2044      H2047   1.046       .  S
N2044      H2048   1.046       .  S
