geometry optimzed in LAMMPS
_audit_creation_date              2020-12-01 
_audit_creation_method            'lammps2cif' 
_symmetry_space_group_name_H-M    'P1' 
_symmetry_Int_Tables_number       1 
_symmetry_cell_setting            triclinic 
loop_ 
_symmetry_equiv_pos_as_xyz 
  x,y,z 
_cell_length_a                    52.56244921 
_cell_length_b                    26.374727617554083 
_cell_length_c                    28.741725786177575 
_cell_angle_alpha                 89.80766398637917 
_cell_angle_beta                  115.93312641361362 
_cell_angle_gamma                 90.06563893275224 
loop_ 
_atom_site_label 
_atom_site_type_symbol 
_atom_site_fract_x 
_atom_site_fract_y 
_atom_site_fract_z 
_atom_site_charge 
O1          O  0.07360371  0.34146752  0.27424648    -0.81300
C2          C  0.12356522  0.32443678  0.48500891     0.98100
O3          O  0.11907711  0.29872045  0.44545373    -0.70400
O4          O  0.08970673  0.26826928  0.35017226    -0.74000
Al5        Al  0.11851312  0.32075452  0.38294524     1.49000
C6          C  0.06355359  0.26684937  0.33962540     0.93300
O7          O  0.03985078  0.40105640  0.35660895    -0.80200
O8          O  0.08221710  0.47100942  0.37682535    -0.73800
Al9        Al  0.06067389  0.37109508  0.32169890     1.90100
O10         O  0.07196322  0.39966250  0.43716473    -0.72900
O11         O  0.13492853  0.43826240  0.41797963    -0.72700
O12         O  0.12420487  0.37241871  0.48284452    -0.78400
O13         O  0.15248124  0.36290097  0.41749881    -0.76600
O14         O  0.09416418  0.36976008  0.37626919    -1.12700
O15         O  0.11954742  0.33737309  0.31979991    -0.71900
C16         C  0.09800298  0.33382943  0.27688563     0.98800
C17         C  0.04670825  0.40430426  0.40452881     0.95200
Al18       Al  0.10275854  0.41671283  0.42469568     1.55600
O19         O  0.05056376  0.30742431  0.33805925    -0.76500
C20         C  0.15568612  0.41055834  0.42458872     0.99400
C21         C  0.07092638  0.47413130  0.32772645     0.94300
O22         O  0.06772876  0.43491066  0.30083674    -0.81800
O23         O  0.07361828  0.04827598  0.80151324    -0.81300
C24         C  0.12084564  0.16099292  0.98558873     0.98100
O25         O  0.12217324  0.11318704  0.98348436    -0.70400
O26         O  0.07027007  0.08508918  0.93224834    -0.74000
Al27       Al  0.10287922  0.06886577  0.92486300     1.49000
C28         C  0.04611781  0.07599356  0.89712526     0.93300
O29         O  0.05085324  0.17373067  0.83118433    -0.80200
O30         O  0.12370574  0.15191062  0.82625122    -0.73800
Al31       Al  0.06362301  0.11163538  0.81878365     1.90100
O32         O  0.08995326  0.21702027  0.85043162    -0.72900
O33         O  0.15364601  0.12576448  0.92515125    -0.72700
O34         O  0.11680022  0.18744579  0.94657578    -0.78400
O35         O  0.13634104  0.04942268  0.92221551    -0.76600
O36         O  0.09546975  0.11559180  0.87649184    -1.12700
O37         O  0.08429585  0.01333572  0.87702037    -0.71900
C38         C  0.07476232  0.00953969  0.82821927     0.98800
C39         C  0.06341574  0.21546419  0.83641927     0.95200
Al40       Al  0.11934073  0.16646579  0.88646279     1.55600
O41         O  0.04120679  0.07957985  0.84995151    -0.76500
C42         C  0.15725125  0.07808307  0.93256372     0.99400
C43         C  0.10352411  0.15344270  0.78151723     0.94300
O44         O  0.07863139  0.14287052  0.77497818    -0.81800
O45         O  0.43535597  0.55327081  0.69738670    -0.81300
C46         C  0.38351622  0.65868044  0.50912122     0.98100
O47         O  0.38104378  0.61138242  0.51340464    -0.70400
O48         O  0.43269286  0.58172343  0.56106488    -0.74000
Al49       Al  0.40140239  0.56881771  0.57330147     1.49000
C50         C  0.45734125  0.57238143  0.59425263     0.93300
O51         O  0.45591895  0.67680438  0.65856078    -0.80200
O52         O  0.38491333  0.65744449  0.67183284    -0.73800
Al53       Al  0.44392454  0.61533758  0.67526075     1.90100
O54         O  0.41735528  0.72019875  0.64194452    -0.72900
O55         O  0.35256291  0.62933963  0.57484969    -0.72700
O56         O  0.38853874  0.68714026  0.54718480    -0.78400
O57         O  0.36879570  0.55201041  0.58069096    -0.76600
O58         O  0.41082629  0.61773199  0.61969878    -1.12700
O59         O  0.42082676  0.51509046  0.62276952    -0.71900
C60         C  0.43269688  0.51330070  0.67187573     0.98800
C61         C  0.44381942  0.71874757  0.65516932     0.95200
Al62       Al  0.38750186  0.66946482  0.60959170     1.55600
O63         O  0.46458216  0.58078847  0.64179697    -0.76500
C64         C  0.34826250  0.58165423  0.57036049     0.99400
C65         C  0.40573562  0.65839662  0.71583412     0.94300
O66         O  0.43041908  0.64833559  0.72064163    -0.81800
O67         O  0.43211031  0.84394921  0.22210409    -0.81300
C68         C  0.38335417  0.82270046  0.01286350     0.98100
O69         O  0.38799741  0.79711894  0.05266347    -0.70400
O70         O  0.41727228  0.76904378  0.14836588    -0.74000
Al71       Al  0.38769004  0.81946186  0.11390280     1.49000
C72         C  0.44343670  0.76943197  0.15931232     0.93300
O73         O  0.46467003  0.90297308  0.13595668    -0.80200
O74         O  0.42120626  0.97240823  0.11620843    -0.73800
Al75       Al  0.44461575  0.87351538  0.17334360     1.90100
O76         O  0.43146227  0.90170397  0.05638830    -0.72900
O77         O  0.36918310  0.93579579  0.07887299    -0.72700
O78         O  0.38010294  0.87041975  0.01312503    -0.78400
O79         O  0.35295896  0.85898983  0.07790732    -0.76600
O80         O  0.41105850  0.87010189  0.11940787    -1.12700
O81         O  0.38618666  0.83655514  0.17603583    -0.71900
C82         C  0.40771186  0.83449938  0.21907892     0.98800
C83         C  0.45705198  0.90535421  0.08755827     0.95200
Al84       Al  0.40109749  0.91660972  0.07014203     1.55600
O85         O  0.45542939  0.81055023  0.15882315    -0.76500
C86         C  0.34894622  0.90660882  0.07213027     0.99400
C87         C  0.43314813  0.97626742  0.16522715     0.94300
O88         O  0.43706536  0.93732628  0.19292845    -0.81800
C89         C  0.37121802  0.70996946  0.79816559    -0.13900
C90         C  0.39479665  0.72899074  0.84076661     0.16500
C91         C  0.42215368  0.72019651  0.84442708     0.02800
C92         C  0.42518138  0.69376399  0.80486937    -0.12400
C93         C  0.40153632  0.67639519  0.76103420    -0.03400
C94         C  0.37420321  0.68337726  0.75861223     0.02100
C95         C  0.39055972  0.75360811  0.88331501     0.08900
N96         N  0.44697646  0.73966499  0.88681489     0.65300
H97         H  0.44617486  0.68937090  0.80716882     0.18200
N98         N  0.34931978  0.66299495  0.71706836     0.75700
H99         H  0.35034398  0.71481718  0.79632907     0.09700
C100        C  0.37393283  0.79787680  0.87581257     0.03400
C101        C  0.37079119  0.81888228  0.91805364    -0.05300
C102        C  0.38369027  0.79650353  0.96738983    -0.23700
C103        C  0.39921476  0.75096022  0.97373125     0.12600
C104        C  0.40255161  0.73041725  0.93204974    -0.12900
N105        N  0.36088141  0.82279568  0.82633960     0.64300
H106        H  0.35892727  0.85369134  0.91267516     0.12100
N107        N  0.41284253  0.72593281  0.02278261     0.60900
H108        H  0.41475999  0.69593212  0.93787110     0.08300
O109        O  0.32683444  0.68880263  0.69768491    -0.40500
O110        O  0.34855907  0.61686219  0.70492511    -0.39700
O111        O  0.46949782  0.71393117  0.90543948    -0.39700
O112        O  0.44755700  0.78494451  0.90123718    -0.37400
O113        O  0.40041150  0.68991295  0.03333006    -0.38300
O114        O  0.43884661  0.73311868  0.05086909    -0.34500
O115        O  0.33704179  0.84379478  0.81184856    -0.35900
O116        O  0.37406432  0.82770652  0.79893320    -0.40200
C117        C  0.39461639  0.68154037  0.38847410    -0.13900
C118        C  0.39137355  0.73443983  0.38350064     0.16500
C119        C  0.38241773  0.76097665  0.41635503     0.02800
C120        C  0.37746197  0.73423024  0.45378527    -0.12400
C121        C  0.38213401  0.68168043  0.46079988    -0.03400
C122        C  0.39022772  0.65492753  0.42676300     0.02100
C123        C  0.39654111  0.76133713  0.34285440     0.08900
N124        N  0.37978875  0.81529358  0.41430553     0.65300
H125        H  0.37154296  0.75534894  0.47979269     0.18200
N126        N  0.39548936  0.60142368  0.43197719     0.75700
H127        H  0.40091318  0.66083575  0.36273659     0.09700
C128        C  0.42275858  0.75843989  0.34019020     0.03400
C129        C  0.42636342  0.78510251  0.30107334    -0.05300
C130        C  0.40447964  0.81473814  0.26455455    -0.23700
C131        C  0.37835924  0.81754744  0.26747897     0.12600
C132        C  0.37459344  0.79044227  0.30599534    -0.12900
N133        N  0.44580517  0.72856573  0.37642993     0.64300
H134        H  0.44620362  0.78156140  0.29841286     0.12100
N135        N  0.35544622  0.84775512  0.23170617     0.60900
H136        H  0.35440698  0.79252518  0.30754287     0.08300
O137        O  0.41890424  0.58435888  0.43655982    -0.40500
O138        O  0.37531135  0.57107097  0.42306012    -0.39700
O139        O  0.36026822  0.83624232  0.42163934    -0.39700
O140        O  0.39872733  0.84258192  0.41113807    -0.37400
O141        O  0.33091827  0.82915565  0.20904329    -0.38300
O142        O  0.35923941  0.89409035  0.22551866    -0.34500
O143        O  0.46097439  0.70297133  0.36113599    -0.35900
O144        O  0.45249261  0.73074946  0.42424960    -0.40200
C145        C  0.26946997  0.93029801  0.00273539    -0.13900
C146        C  0.26776961  0.98086178  0.01662497     0.16500
C147        C  0.29259631  0.00508111  0.05262195     0.02800
C148        C  0.31860428  0.97945689  0.07052752    -0.12400
C149        C  0.32046459  0.92953438  0.05517146    -0.03400
C150        C  0.29544812  0.90454489  0.02143017     0.02100
C151        C  0.23974249  0.00694707  0.99329272     0.08900
N152        N  0.29179170  0.05503060  0.07197243     0.65300
H153        H  0.33762133  0.99851744  0.09737647     0.18200
N154        N  0.29617535  0.85431615  0.00326032     0.75700
H155        H  0.25053983  0.91125943  0.97553490     0.09700
C156        C  0.23498726  0.05390719  0.96636054     0.03400
C157        C  0.20822768  0.07746283  0.94834382    -0.05300
C158        C  0.18593780  0.05461180  0.95514248    -0.23700
C159        C  0.19097644  0.00764027  0.98195283     0.12600
C160        C  0.21748280  0.98445494  0.00006310    -0.12900
N161        N  0.25664422  0.07748626  0.95585890     0.64300
H162        H  0.20447724  0.11290173  0.92720116     0.12100
N163        N  0.16981646  0.98374065  0.99327447     0.60900
H164        H  0.22101391  0.94907073  0.02129946     0.08300
O165        O  0.30960192  0.84565740  0.97689376    -0.40500
O166        O  0.28046343  0.82027292  0.00764465    -0.39700
O167        O  0.27162951  0.06792196  0.08208445    -0.39700
O168        O  0.31267363  0.08449118  0.08421025    -0.37400
O169        O  0.16324240  0.93804202  0.98088385    -0.38300
O170        O  0.16105607  0.00550379  0.02256668    -0.34500
O171        O  0.27327379  0.05087948  0.94503756    -0.35900
O172        O  0.25751080  0.12514909  0.95252245    -0.40200
C173        C  0.00894921  0.04263540  0.97790806    -0.13900
C174        C  0.00890046  0.98959939  0.97393189     0.16500
C175        C  0.01575524  0.96707714  0.93613655     0.02800
C176        C  0.02350895  0.99828542  0.90491836    -0.12400
C177        C  0.02646676  0.05073040  0.91305023    -0.03400
C178        C  0.01862956  0.07316545  0.94921608     0.02100
C179        C  0.99960512  0.95916918  0.00710747     0.08900
N180        N  0.01697361  0.91292693  0.93135627     0.65300
H181        H  0.03048385  0.98096123  0.87841613     0.18200
N182        N  0.51737064  0.12901914  0.94323106     0.75700
H183        H  0.49981114  0.06465335  0.99369057     0.09700
C184        C  0.51084659  0.97717606  0.05995054     0.03400
C185        C  0.49778027  0.95395763  0.08810780    -0.05300
C186        C  0.47676725  0.91714162  0.06502868    -0.23700
C187        C  0.47002939  0.90115769  0.01409675     0.12600
C188        C  0.48190283  0.92568693  0.98541942    -0.12900
N189        N  0.53257286  0.01438384  0.08488874     0.64300
H190        H  0.50298341  0.96641658  0.12704198     0.12100
N191        N  0.45013282  0.86127446  0.99018390     0.60900
H192        H  0.96875071  0.91925534  0.94150175     0.08300
O193        O  0.49687749  0.15122846  0.94621742    -0.40500
O194        O  0.04613869  0.14476976  0.98459919    -0.39700
O195        O  0.01085936  0.89333404  0.88772520    -0.39700
O196        O  0.02732579  0.88516999  0.97121414    -0.37400
O197        O  0.43071232  0.86681541  0.94494084    -0.38300
O198        O  0.45361853  0.81881153  0.01241164    -0.34500
O199        O  0.53160745  0.04295233  0.11924070    -0.35900
O200        O  0.05542876  0.99819136  0.07670737    -0.40200
C201        C  0.47386705  0.84994813  0.70732679    -0.13900
C202        C  0.00453477  0.83726883  0.72789498     0.16500
C203        C  0.01236968  0.79240532  0.71101563     0.02800
C204        C  0.48871980  0.76269106  0.67050610    -0.12400
C205        C  0.46181016  0.76517245  0.67008287    -0.03400
C206        C  0.45427173  0.80993032  0.68828045     0.02100
C207        C  0.02484888  0.87939412  0.75119517     0.08900
N208        N  0.03993792  0.78670418  0.71256475     0.65300
H209        H  0.49498461  0.72922697  0.65635729     0.18200
N210        N  0.42780039  0.81434480  0.69107806     0.75700
H211        H  0.46831220  0.88352420  0.72245069     0.09700
C212        C  0.02084997  0.92632741  0.72556794     0.03400
C213        C  0.03858576  0.96712471  0.75051252    -0.05300
C214        C  0.06041347  0.96242492  0.80107686    -0.23700
C215        C  0.06488843  0.91479968  0.82603831     0.12600
C216        C  0.04721305  0.87371301  0.80088076    -0.12900
N217        N  0.99848227  0.93331585  0.67457669     0.64300
H218        H  0.03451144  0.00330638  0.73065475     0.12100
N219        N  0.08699895  0.90768107  0.87700175     0.60900
H220        H  0.05038940  0.83766216  0.82078726     0.08300
O221        O  0.41296743  0.85374600  0.67393154    -0.40500
O222        O  0.42204701  0.78420488  0.71934300    -0.39700
O223        O  0.05202494  0.74401015  0.72242983    -0.39700
O224        O  0.05117361  0.82296753  0.69951926    -0.37400
O225        O  0.11075811  0.89129492  0.88285326    -0.38300
O226        O  0.08156481  0.91037975  0.91556159    -0.34500
O227        O  0.98206334  0.97087603  0.66476259    -0.35900
O228        O  0.99590245  0.90334272  0.63862679    -0.40200
C229        C  0.48153874  0.42459473  0.77793838    -0.13900
C230        C  0.48747993  0.38841332  0.74859110     0.16500
C231        C  0.47274325  0.38985486  0.69422757     0.02800
C232        C  0.45325472  0.42888139  0.67013955    -0.12400
C233        C  0.44780665  0.46655585  0.69920929    -0.03400
C234        C  0.46174444  0.46334620  0.75407478     0.02100
C235        C  0.00679339  0.34131032  0.77844722     0.08900
N236        N  0.47760949  0.35235156  0.66300499     0.65300
H237        H  0.44301051  0.43049029  0.62832589     0.18200
N238        N  0.45647160  0.49929997  0.78622405     0.75700
H239        H  0.99602747  0.42073013  0.82393682     0.09700
C240        C  0.03176458  0.33979635  0.77153254     0.03400
C241        C  0.05110056  0.29995259  0.79347468    -0.03700
C242        C  0.04593021  0.26188393  0.82248354    -0.23700
C243        C  0.02129191  0.26469561  0.83065647     0.12600
C244        C  0.49971952  0.30647129  0.79484169    -0.12900
N245        N  0.03745618  0.37795561  0.74175955     0.64300
H246        H  0.06968183  0.29779512  0.78636141     0.12100
N247        N  0.01569762  0.22776470  0.86167209     0.60900
H248        H  0.47848517  0.30541000  0.79207179     0.08300
O249        O  0.47682910  0.51746364  0.82548291    -0.40500
O250        O  0.43143846  0.50827064  0.77909540    -0.39700
O251        O  0.47492573  0.30585455  0.67042188    -0.39700
O252        O  0.48191724  0.36572946  0.62484885    -0.37400
O253        O  0.99122887  0.20923389  0.84668184    -0.38300
O254        O  0.50609893  0.22805560  0.87750990    -0.34500
O255        O  0.03840823  0.42405934  0.75405399    -0.35900
O256        O  0.04381657  0.36539531  0.70582044    -0.40200
C257        C  0.13906850  0.20783325  0.70142495    -0.13900
C258        C  0.11546725  0.22333343  0.65673721     0.16500
C259        C  0.08808702  0.21287881  0.65169328     0.02800
C260        C  0.08486127  0.18818389  0.69205210    -0.12400
C261        C  0.10842185  0.17267430  0.73732108    -0.03400
C262        C  0.13593850  0.18212535  0.74147865     0.02100
C263        C  0.11982071  0.24991208  0.61539071     0.08900
N264        N  0.06338957  0.22806432  0.60641015     0.65300
H265        H  0.06365715  0.18186253  0.68815308     0.18200
N266        N  0.16089951  0.16595603  0.78572615     0.75700
H267        H  0.16009888  0.21530514  0.70488712     0.09700
C268        C  0.12192949  0.30310569  0.61433734     0.03400
C269        C  0.12524541  0.32671120  0.57343652    -0.05300
C270        C  0.12607290  0.29808550  0.53283375    -0.23700
C271        C  0.12523423  0.24436875  0.53567934     0.12600
C272        C  0.12210354  0.22110527  0.57669729    -0.12900
N273        N  0.11990427  0.33362168  0.65367179     0.64300
H274        H  0.12564799  0.36772934  0.57214145     0.12100
N275        N  0.12691196  0.21265234  0.49679958     0.60900
H276        H  0.12103773  0.18012615  0.57801016     0.08300
O277        O  0.18135021  0.19619118  0.80724325    -0.40500
O278        O  0.16410946  0.11980093  0.79883292    -0.39700
O279        O  0.06068710  0.21608331  0.56200331    -0.39700
O280        O  0.04297307  0.24893304  0.61088395    -0.37400
O281        O  0.14960965  0.21039315  0.49192530    -0.38300
O282        O  0.10685034  0.18288491  0.47119112    -0.34500
O283        O  0.13974003  0.36349094  0.67999760    -0.35900
O284        O  0.09717301  0.33465564  0.65850638    -0.40200
C285        C  0.12550989  0.26267818  0.08246008    -0.13900
C286        C  0.11670084  0.23575155  0.11492536     0.16500
C287        C  0.11097468  0.18334801  0.10673512     0.02800
C288        C  0.11385907  0.15917402  0.06585622    -0.12400
C289        C  0.12233482  0.18620917  0.03279453    -0.03400
C290        C  0.12850408  0.23853190  0.04183765     0.02100
C291        C  0.11204184  0.26369598  0.15523374     0.08900
N292        N  0.10194873  0.15439590  0.13919240     0.65300
H293        H  0.10867555  0.11929923  0.05907210     0.18200
N294        N  0.13753186  0.26791058  0.00982237     0.75700
H295        H  0.12977916  0.30291654  0.08837738     0.09700
C296        C  0.13425566  0.28933827  0.19581407     0.03400
C297        C  0.12868761  0.31510545  0.23301929    -0.05300
C298        C  0.10147102  0.31552161  0.23109785    -0.23700
C299        C  0.07911594  0.29166282  0.18898148     0.12600
C300        C  0.08462145  0.26594232  0.15181489    -0.12900
N301        N  0.16274920  0.28765116  0.20125783     0.64300
H302        H  0.14607104  0.33275599  0.26497973     0.12100
N303        N  0.05090191  0.29130855  0.18433202     0.60900
H304        H  0.06739242  0.24729534  0.12017816     0.08300
O305        O  0.16107620  0.25889637  0.00969073    -0.40500
O306        O  0.12286849  0.30502839  0.98429930    -0.39700
O307        O  0.08177859  0.12330588  0.11939667    -0.39700
O308        O  0.11513509  0.15759750  0.18781144    -0.37400
O309        O  0.03514300  0.32940390  0.16571939    -0.38300
O310        O  0.04068608  0.25102607  0.19297029    -0.34500
O311        O  0.17827543  0.32649456  0.21593710    -0.35900
O312        O  0.17338442  0.24620748  0.19654378    -0.40200
C313        C  0.53106105  0.14381753  0.26620617    -0.13900
C314        C  0.00719551  0.14071629  0.27375051     0.16500
C315        C  0.99980362  0.18078220  0.29778080     0.02800
C316        C  0.01956250  0.21902925  0.32305096    -0.12400
C317        C  0.04670626  0.21899059  0.32441403    -0.03400
C318        C  0.05472840  0.17679299  0.30347936     0.02100
C319        C  0.48349216  0.10559268  0.24213969     0.08900
N320        N  0.97188817  0.18453268  0.29469299     0.65300
H321        H  0.01298335  0.25057279  0.33925680     0.18200
N322        N  0.08252841  0.17273046  0.30620983     0.75700
H323        H  0.53446063  0.11537802  0.24244234     0.09700
C324        C  0.47191076  0.10129884  0.18781173     0.03400
C325        C  0.45369211  0.06086559  0.16278756    -0.05300
C326        C  0.44622253  0.02482383  0.19082659    -0.23700
C327        C  0.45635835  0.03135529  0.24500095     0.12600
C328        C  0.47518237  0.07100144  0.27000589    -0.12900
N329        N  0.47872941  0.13748515  0.15770993     0.64300
H330        H  0.44624678  0.05662502  0.12144768     0.12100
N331        N  0.44833122  0.99741973  0.27540663     0.60900
H332        H  0.98475626  0.07215905  0.31467627     0.08300
O333        O  0.57625174  0.17407414  0.24013330    -0.40500
O334        O  0.10373093  0.17022717  0.34978057    -0.39700
O335        O  0.96863373  0.19374149  0.33482275    -0.39700
O336        O  0.95053402  0.18354673  0.25125368    -0.37400
O337        O  0.42252237  0.98842678  0.26252511    -0.38300
O338        O  0.96643523  0.97605418  0.31956206    -0.34500
O339        O  0.48737762  0.12271208  0.12540461    -0.35900
O340        O  0.47449110  0.18413718  0.16110810    -0.40200
C341        C  0.97189681  0.63823103  0.22156356    -0.13900
C342        C  0.49874051  0.64027066  0.21562576     0.16500
C343        C  0.50898188  0.68721754  0.20768163     0.02800
C344        C  0.49020484  0.72783813  0.18798147    -0.12400
C345        C  0.46125713  0.72302152  0.17587816    -0.03400
C346        C  0.45098966  0.67522733  0.18239439     0.02100
C347        C  0.01966328  0.60096827  0.24736273     0.08900
N348        N  0.53836994  0.69440249  0.22000276     0.65300
H349        H  0.49857047  0.76374170  0.18255341     0.18200
N350        N  0.42202844  0.66798038  0.17208098     0.75700
H351        H  0.96771207  0.60795066  0.24281319     0.09700
C352        C  0.03042542  0.59696318  0.30150755     0.03400
C353        C  0.04893587  0.55741662  0.32781821    -0.05300
C354        C  0.05760599  0.52209254  0.30110756    -0.23700
C355        C  0.04839776  0.52851871  0.24711207     0.12600
C356        C  0.02913902  0.56725921  0.22075434    -0.12900
N357        N  0.02203880  0.63217291  0.32995953     0.64300
H358        H  0.05556303  0.55318551  0.36899138     0.12100
N359        N  0.05796850  0.49555871  0.21839656     0.60900
H360        H  0.50522723  0.55569690  0.17179782     0.08300
O361        O  0.92656969  0.66695903  0.24832287    -0.40500
O362        O  0.40720928  0.63589411  0.13873688    -0.39700
O363        O  0.55176176  0.66101198  0.20831997    -0.39700
O364        O  0.55038399  0.73597861  0.23860050    -0.37400
O365        O  0.04053233  0.47719858  0.17582979    -0.38300
O366        O  0.55946836  0.46764210  0.19497344    -0.34500
O367        O  0.00733364  0.61714979  0.35211406    -0.35900
O368        O  0.02636008  0.67902157  0.32784034    -0.40200
C369        C  0.23119710  0.44684280  0.45030137    -0.13900
C370        C  0.23771971  0.48310296  0.48979732     0.16500
C371        C  0.21708711  0.49518072  0.50704147     0.02800
C372        C  0.19049343  0.47157194  0.48392663    -0.12400
C373        C  0.18401089  0.43494520  0.44490376    -0.03400
C374        C  0.20457484  0.42274840  0.42756654     0.02100
C375        C  0.26595314  0.50860248  0.51186544     0.08900
N376        N  0.22307690  0.52974260  0.54916964     0.65300
H377        H  0.17498496  0.48056150  0.49797989     0.18200
N378        N  0.19828112  0.38852096  0.38520752     0.75700
H379        H  0.24672311  0.43822859  0.43621169     0.09700
C380        C  0.29122414  0.48039214  0.53493777     0.03400
C381        C  0.31734834  0.50551894  0.55396567    -0.05300
C382        C  0.31932357  0.55871143  0.55087610    -0.23700
C383        C  0.29387683  0.58695491  0.52731750     0.12600
C384        C  0.26761887  0.56168404  0.50872796    -0.12900
N385        N  0.29078920  0.42626842  0.54023093     0.64300
H386        H  0.33636832  0.48283585  0.57188151     0.12100
N387        N  0.29406890  0.64064384  0.51954253     0.60900
H388        H  0.24830174  0.58350049  0.49016158     0.08300
O389        O  0.21721826  0.35940468  0.38477445    -0.40500
O390        O  0.17507946  0.39208226  0.34515396    -0.39700
O391        O  0.20381200  0.55809755  0.54945480    -0.39700
O392        O  0.24657875  0.52804599  0.58879921    -0.37400
O393        O  0.30538669  0.65827603  0.49219298    -0.38300
O394        O  0.27830555  0.66898217  0.53094803    -0.34500
O395        O  0.30778750  0.39891908  0.53114569    -0.35900
O396        O  0.27506561  0.40597576  0.55794743    -0.40200
C397        C  0.01602184  0.41537991  0.49864427    -0.13900
C398        C  0.00536953  0.46496153  0.48820019     0.16500
C399        C  0.00376463  0.49032987  0.44381531     0.02800
C400        C  0.01444671  0.46705527  0.41234224    -0.12400
C401        C  0.02645025  0.41848008  0.42441695    -0.03400
C402        C  0.02635629  0.39157392  0.46689881     0.02100
C403        C  0.49510657  0.49516601  0.51180563     0.08900
N404        N  0.49226567  0.54348622  0.41805096     0.65300
H405        H  0.01520215  0.48830799  0.38067221     0.18200
N406        N  0.03797087  0.34120820  0.47951462     0.75700
H407        H  0.01677151  0.39561301  0.53226190     0.09700
C408        C  0.97510975  0.46663119  0.53551583     0.03400
C409        C  0.46289265  0.49705920  0.55133218    -0.05300
C410        C  0.47476263  0.54280951  0.57611566    -0.23700
C411        C  0.49809413  0.56339116  0.57132045     0.12600
C412        C  0.50829966  0.53923772  0.53939615    -0.12900
N413        N  0.95960343  0.42301590  0.50737839     0.64300
H414        H  0.95027126  0.47352134  0.57731976     0.12100
N415        N  0.51056925  0.60982017  0.59641680     0.60900
H416        H  0.52630840  0.55508018  0.53570838     0.08300
O417        O  0.03589813  0.31081618  0.44416236    -0.40500
O418        O  0.04902522  0.32597172  0.52585561    -0.39700
O419        O  0.50773225  0.58193200  0.43623236    -0.39700
O420        O  0.46807414  0.54875168  0.38078994    -0.37400
O421        O  0.52531981  0.61071887  0.64479354    -0.38300
O422        O  0.50674252  0.65005754  0.57034494    -0.34500
O423        O  0.95166420  0.38966306  0.52971200    -0.35900
O424        O  0.95055976  0.42111496  0.45884199    -0.40200
O425        O  0.57486719  0.33627012  0.26942354    -0.81300
C426        C  0.62462575  0.32721772  0.48033256     0.98100
O427        O  0.62005386  0.29976440  0.44182225    -0.70400
O428        O  0.59101543  0.26617293  0.34743019    -0.74000
Al429      Al  0.61966280  0.31931012  0.37876140     1.49000
C430        C  0.56484485  0.26514197  0.33683135     0.93300
O431        O  0.54068763  0.40020010  0.34907910    -0.80200
O432        O  0.58263596  0.46980651  0.36663809    -0.73800
Al433      Al  0.56171963  0.36827755  0.31553281     1.90100
O434        O  0.57276867  0.40143999  0.42967813    -0.72900
O435        O  0.63551168  0.43779665  0.40855895    -0.72700
O436        O  0.62520845  0.37505402  0.47623461    -0.78400
O437        O  0.65354970  0.36206139  0.41238770    -0.76600
O438        O  0.59512455  0.36848679  0.37012156    -1.12700
O439        O  0.62079151  0.33370726  0.31525460    -0.71900
C440        C  0.59934171  0.32893162  0.27232504     0.98800
C441        C  0.54748573  0.40532781  0.39681362     0.95200
Al442      Al  0.60351489  0.41729754  0.41649695     1.55600
O443        O  0.55183202  0.30583686  0.33443875    -0.76500
C444        C  0.65654237  0.40996501  0.41733824     0.99400
C445        C  0.57102632  0.47102785  0.31745491     0.94300
O446        O  0.56870653  0.43089140  0.29235521    -0.81800
O447        O  0.57240241  0.05335971  0.79131070    -0.81300
C448        C  0.62186598  0.15778039  0.98020737     0.98100
O449        O  0.62337905  0.11020005  0.97606207    -0.70400
O450        O  0.57143769  0.08254950  0.92559140    -0.74000
Al451      Al  0.60335173  0.06823716  0.91564878     1.49000
C452        C  0.54692478  0.07513055  0.89099313     0.93300
O453        O  0.55075073  0.17648665  0.82836916    -0.80200
O454        O  0.62288672  0.15676913  0.81984197    -0.73800
Al455      Al  0.56304201  0.11545136  0.81236023     1.90100
O456        O  0.58958744  0.22001831  0.84736708    -0.72900
O457        O  0.65337567  0.12725561  0.91627961    -0.72700
O458        O  0.61716498  0.18614423  0.94214774    -0.78400
O459        O  0.63633109  0.05029855  0.91031592    -0.76600
O460        O  0.59531327  0.11733337  0.86936742    -1.12700
O461        O  0.58399642  0.01490778  0.86543420    -0.71900
C462        C  0.57393350  0.01324062  0.81640996     0.98800
C463        C  0.56303129  0.21845431  0.83347670     0.95200
Al464      Al  0.61908059  0.16852740  0.88076336     1.55600
O465        O  0.54119521  0.08111332  0.84362039    -0.76500
C466        C  0.65703636  0.07937982  0.92001698     0.99400
C467        C  0.60254368  0.15986353  0.77551266     0.94300
O468        O  0.57758548  0.14949906  0.76887231    -0.81800
O469        O  0.93226978  0.54561127  0.70407365    -0.81300
C470        C  0.88907372  0.65884446  0.52083689     0.98100
O471        O  0.88586883  0.61138327  0.52243284    -0.70400
O472        O  0.93692690  0.57928159  0.57429364    -0.74000
Al473      Al  0.90387575  0.56607331  0.58101809     1.49000
C474        C  0.96058629  0.56705013  0.60933215     0.93300
O475        O  0.95826343  0.66850179  0.67546506    -0.80200
O476        O  0.88440230  0.65139912  0.67870741    -0.73800
Al477      Al  0.94392411  0.60741366  0.68729874     1.90100
O478        O  0.91996517  0.71401874  0.65590858    -0.72900
O479        O  0.85429559  0.62698813  0.57994254    -0.72700
O480        O  0.89295980  0.68541930  0.55957914    -0.78400
O481        O  0.86981568  0.54933890  0.58288366    -0.76600
O482        O  0.91226347  0.61293254  0.62931325    -1.12700
O483        O  0.92120084  0.50990660  0.62924577    -0.71900
C484        C  0.93101905  0.50654666  0.67818332     0.98800
C485        C  0.94666491  0.71102760  0.67188596     0.95200
Al486      Al  0.88947945  0.66537941  0.61910173     1.55600
O487        O  0.96593766  0.57260068  0.65653498    -0.76500
C488        C  0.84956713  0.57950109  0.57310057     0.99400
C489        C  0.90430405  0.65183111  0.72373005     0.94300
O490        O  0.92919710  0.64026473  0.73086553    -0.81800
O491        O  0.93301550  0.84088921  0.22616622    -0.81300
C492        C  0.88027349  0.81969927  0.01779869     0.98100
O493        O  0.88493794  0.79463376  0.05794053    -0.70400
O494        O  0.91530423  0.76642601  0.15313572    -0.74000
Al495      Al  0.88628167  0.81798141  0.12016177     1.49000
C496        C  0.94077428  0.76473762  0.15967972     0.93300
O497        O  0.96353128  0.89710033  0.13624407    -0.80200
O498        O  0.92073770  0.96928005  0.12014475    -0.73800
Al499      Al  0.94440642  0.86905942  0.17552395     1.90100
O500        O  0.92903443  0.89856080  0.05815426    -0.72900
O501        O  0.86830705  0.93411150  0.08457987    -0.72700
O502        O  0.87780031  0.86764642  0.01788504    -0.78400
O503        O  0.85169845  0.85809834  0.08483510    -0.76600
O504        O  0.91002226  0.86739877  0.12361418    -1.12700
O505        O  0.88671429  0.83640272  0.18390249    -0.71900
C506        C  0.90903227  0.83339436  0.22582501     0.98800
C507        C  0.95490367  0.90047443  0.08770971     0.95200
Al508      Al  0.89964409  0.91392995  0.07431916     1.55600
O509        O  0.95337679  0.80500477  0.15867150    -0.76500
C510        C  0.84768875  0.90536737  0.07633734     0.99400
C511        C  0.93412543  0.97271259  0.16910677     0.94300
O512        O  0.93883414  0.93358997  0.19689866    -0.81800
C513        C  0.86817200  0.71047115  0.80046888    -0.13900
C514        C  0.89158364  0.72477707  0.84601358     0.16500
C515        C  0.91904139  0.71128698  0.85272811     0.02800
C516        C  0.92236996  0.68404493  0.81390969    -0.12400
C517        C  0.89902312  0.67112279  0.76741025    -0.03400
C518        C  0.87151417  0.68396197  0.76127027     0.02100
C519        C  0.88685267  0.74935155  0.88816320     0.08900
N520        N  0.94382473  0.72687415  0.89761918     0.65300
H521        H  0.94358758  0.67559832  0.81904289     0.18200
N522        N  0.84667723  0.67041917  0.71570532     0.75700
H523        H  0.84704607  0.71922339  0.79569467     0.09700
C524        C  0.87095631  0.79453544  0.88089320     0.03400
C525        C  0.86752290  0.81541845  0.92291666    -0.05300
C526        C  0.87984679  0.79258235  0.97210531    -0.23700
C527        C  0.89497136  0.74652466  0.97835691     0.12600
C528        C  0.89804750  0.72558542  0.93658814    -0.12900
N529        N  0.85934811  0.82093332  0.83217169     0.64300
H530        H  0.85626978  0.85091569  0.91770275     0.12100
N531        N  0.90963543  0.72259350  0.02780413     0.60900
H532        H  0.90982123  0.69057851  0.94237545     0.08300
O533        O  0.82838388  0.70371138  0.69143401    -0.40500
O534        O  0.84133912  0.62437845  0.70339837    -0.39700
O535        O  0.96463004  0.69715482  0.91827358    -0.39700
O536        O  0.94630156  0.77217396  0.91299721    -0.37400
O537        O  0.89609432  0.69526808  0.04538737    -0.38300
O538        O  0.93627379  0.71964832  0.04794017    -0.34500
O539        O  0.83587924  0.84347824  0.81681069    -0.35900
O540        O  0.87368525  0.82613423  0.80686854    -0.40200
C541        C  0.89354505  0.68176365  0.39326943    -0.13900
C542        C  0.90017358  0.73356827  0.39734563     0.16500
C543        C  0.90135166  0.76107027  0.44008816     0.02800
C544        C  0.89587982  0.73638203  0.47794162    -0.12400
C545        C  0.89001503  0.68400139  0.47512056    -0.03400
C546        C  0.88867058  0.65669873  0.43179078     0.02100
C547        C  0.90322050  0.75971036  0.35445173     0.08900
N548        N  0.90863510  0.81385763  0.44607113     0.65300
H549        H  0.89745504  0.75820342  0.51094927     0.18200
N550        N  0.88268325  0.60358252  0.42641448     0.75700
H551        H  0.89210623  0.66073100  0.35989091     0.09700
C552        C  0.92946277  0.76316478  0.35226630     0.03400
C553        C  0.93132251  0.79112362  0.31215736    -0.05300
C554        C  0.90735927  0.81461620  0.27329110    -0.23700
C555        C  0.88133529  0.81201770  0.27674684     0.12600
C556        C  0.87957630  0.78458157  0.31705882    -0.12900
N557        N  0.95422681  0.73817968  0.38989217     0.64300
H558        H  0.95131472  0.79187253  0.30975642     0.12100
N559        N  0.85646402  0.83685751  0.23971023     0.60900
H560        H  0.85959978  0.78297251  0.31951973     0.08300
O561        O  0.90149781  0.57256868  0.42886515    -0.40500
O562        O  0.85786830  0.58808539  0.41434979    -0.39700
O563        O  0.89410164  0.84484705  0.45777723    -0.39700
O564        O  0.93140163  0.82858120  0.44568110    -0.37400
O565        O  0.83355437  0.81260113  0.21790801    -0.38300
O566        O  0.85664381  0.88409219  0.23261889    -0.34500
O567        O  0.95303401  0.69246212  0.40192394    -0.35900
O568        O  0.97798312  0.75992512  0.40691016    -0.40200
C569        C  0.76999971  0.93853229  0.03679945    -0.13900
C570        C  0.76556497  0.97623972  0.99925880     0.16500
C571        C  0.78789306  0.98933569  0.98689759     0.02800
C572        C  0.81426141  0.96570296  0.01332658    -0.12400
C573        C  0.81885591  0.92775656  0.05076315    -0.03400
C574        C  0.79624151  0.91361598  0.06208868     0.02100
C575        C  0.73792832  0.00322393  0.97513319     0.08900
N576        N  0.78394177  0.02548329  0.94676530     0.65300
H577        H  0.83120847  0.97608595  0.00334177     0.18200
N578        N  0.79979446  0.87615989  0.10064207     0.75700
H579        H  0.75293678  0.92852799  0.04658270     0.09700
C580        C  0.71249893  0.97730312  0.94530037     0.03400
C581        C  0.68674179  0.00364016  0.92712815    -0.05300
C582        C  0.68550638  0.05558467  0.93752345    -0.23700
C583        C  0.71115740  0.08168143  0.96636218     0.12600
C584        C  0.73699596  0.05535414  0.98426607    -0.12900
N585        N  0.71245709  0.92462114  0.93247779     0.64300
H586        H  0.66742109  0.98315159  0.90429860     0.12100
N587        N  0.71144980  0.13372663  0.98077954     0.60900
H588        H  0.75647536  0.07522280  0.00755443     0.08300
O589        O  0.80440664  0.83059786  0.09342042    -0.40500
O590        O  0.79286464  0.88648430  0.13640503    -0.39700
O591        O  0.80360143  0.05569571  0.95170157    -0.39700
O592        O  0.76205529  0.02374840  0.90412863    -0.37400
O593        O  0.69878595  0.14671682  0.00740140    -0.38300
O594        O  0.72851925  0.16433504  0.97560052    -0.34500
O595        O  0.69247732  0.89604953  0.92931101    -0.35900
O596        O  0.73078030  0.90766068  0.91925610    -0.40200
C597        C  0.50799182  0.04568255  0.96985701    -0.13900
C598        C  0.51092328  0.99268432  0.97246603     0.16500
C599        C  0.52048359  0.96784644  0.93942239     0.02800
C600        C  0.52769101  0.99686204  0.90606918    -0.12400
C601        C  0.52757864  0.04995392  0.90767230    -0.03400
C602        C  0.51735250  0.07474254  0.93949394     0.02100
C603        C  0.50189866  0.96411237  0.00722886     0.08900
N604        N  0.52496972  0.91389785  0.94174401     0.65300
H605        H  0.53659221  0.97806826  0.88323337     0.18200
N606        N  0.02174832  0.12643957  0.95924897     0.75700
H607        H  0.00276477  0.06027215  0.00531462     0.09700
C608        C  0.01072318  0.96660906  0.06133842     0.03400
C609        C  0.99733821  0.94327409  0.08881468    -0.05300
C610        C  0.97390951  0.91156064  0.06348241    -0.23700
C611        C  0.96498388  0.90021179  0.01054489     0.12600
C612        C  0.97719774  0.92540706  0.98275353    -0.12900
N613        N  0.03496835  0.99841837  0.08858712     0.64300
H614        H  0.00435629  0.95177537  0.12935967     0.12100
N615        N  0.94291602  0.86417277  0.98416812     0.60900
H616        H  0.47494766  0.91533300  0.94532869     0.08300
O617        O  0.00040702  0.15243239  0.95340021    -0.40500
O618        O  0.53939903  0.15403568  0.95134375    -0.39700
O619        O  0.52071347  0.88965093  0.90119669    -0.39700
O620        O  0.53625390  0.89136148  0.98487710    -0.37400
O621        O  0.92475687  0.87243426  0.93830869    -0.38300
O622        O  0.94319706  0.82187103  0.00499861    -0.34500
O623        O  0.03711153  0.02352193  0.12746181    -0.35900
O624        O  0.55402379  0.01589296  0.07590444    -0.40200
C625        C  0.97712180  0.84176030  0.72432709    -0.13900
C626        C  0.50110505  0.84578366  0.71005520     0.16500
C627        C  0.50827974  0.80220285  0.69054682     0.02800
C628        C  0.99274797  0.75269406  0.69186911    -0.12400
C629        C  0.96535993  0.75640100  0.68912317    -0.03400
C630        C  0.95761308  0.80167339  0.70598420     0.02100
C631        C  0.52213913  0.88654655  0.73499911     0.08900
N632        N  0.53548799  0.79755302  0.69109785     0.65300
H633        H  0.99900127  0.71853778  0.67876992     0.18200
N634        N  0.93100009  0.80656922  0.70821932     0.75700
H635        H  0.97129971  0.87596684  0.73809870     0.09700
C636        C  0.52014679  0.93319510  0.70997071     0.03400
C637        C  0.53872051  0.97260501  0.73612430    -0.05300
C638        C  0.55960468  0.96668613  0.78748202    -0.23700
C639        C  0.56243425  0.91882792  0.81182463     0.12600
C640        C  0.54348936  0.87950836  0.78543817    -0.12900
N641        N  0.49878898  0.94148189  0.65841804     0.64300
H642        H  0.53588901  0.00879456  0.71660527     0.12100
N643        N  0.58415609  0.90956999  0.86308899     0.60900
H644        H  0.54520345  0.84335914  0.80453167     0.08300
O645        O  0.91669794  0.84668856  0.69212798    -0.40500
O646        O  0.92458147  0.77576261  0.73508866    -0.39700
O647        O  0.55557150  0.77711080  0.72923261    -0.39700
O648        O  0.53873955  0.80951063  0.65149724    -0.37400
O649        O  0.60941704  0.92209599  0.87479580    -0.38300
O650        O  0.57879913  0.88379799  0.89482620    -0.34500
O651        O  0.48028293  0.97533653  0.64958051    -0.35900
O652        O  0.49934337  0.91695128  0.62124876    -0.40200
C653        C  0.98235547  0.41985291  0.78275831    -0.13900
C654        C  0.98478058  0.38012309  0.75300557     0.16500
C655        C  0.96657480  0.37814397  0.69968909     0.02800
C656        C  0.94751436  0.41812480  0.67642491    -0.12400
C657        C  0.94577620  0.45957141  0.70569871    -0.03400
C658        C  0.96296485  0.45918694  0.76007126     0.02100
C659        C  0.50837834  0.34813965  0.77541332     0.08900
N660        N  0.96750928  0.33615657  0.66882583     0.65300
H661        H  0.93455601  0.41735606  0.63503063     0.18200
N662        N  0.96214952  0.49947234  0.79272479     0.75700
H663        H  0.49238193  0.42260203  0.81975209     0.09700
C664        C  0.53612782  0.34962502  0.77977438     0.03400
C665        C  0.55438727  0.30820553  0.80136490    -0.03700
C666        C  0.54527970  0.26502980  0.81874139    -0.23700
C667        C  0.51768910  0.26509689  0.81614184     0.12600
C668        C  0.00199107  0.30418424  0.80843086    -0.12900
N669        N  0.54586318  0.39279602  0.76205475     0.64300
H670        H  0.57532755  0.30913603  0.80282123     0.12100
N671        N  0.50738467  0.22349583  0.83493834     0.60900
H672        H  0.98294300  0.30570412  0.81412542     0.08300
O673        O  0.98461830  0.52245946  0.82150570    -0.40500
O674        O  0.93982495  0.50770367  0.79772904    -0.39700
O675        O  0.96781423  0.29121755  0.68432473    -0.39700
O676        O  0.96634688  0.34372111  0.62460125    -0.37400
O677        O  0.49301692  0.18933306  0.80387873    -0.38300
O678        O  0.03465968  0.21672094  0.90603872    -0.34500
O679        O  0.55518355  0.43095804  0.79096973    -0.35900
O680        O  0.54757798  0.39105870  0.71965542    -0.40200
C681        C  0.63957161  0.20660950  0.69549217    -0.13900
C682        C  0.61762119  0.23326063  0.65609781     0.16500
C683        C  0.59049475  0.23368893  0.65481698     0.02800
C684        C  0.58586440  0.20778790  0.69304370    -0.12400
C685        C  0.60773319  0.18080612  0.73252965    -0.03400
C686        C  0.63495040  0.18032748  0.73361213     0.02100
C687        C  0.62311331  0.25869427  0.61537621     0.08900
N688        N  0.56728386  0.25899890  0.61414775     0.65300
H689        H  0.56504844  0.20928869  0.69211659     0.18200
N690        N  0.65803982  0.15315236  0.77277511     0.75700
H691        H  0.66036612  0.20584238  0.69627090     0.09700
C692        C  0.62365752  0.31203575  0.61105619     0.03400
C693        C  0.62575215  0.33360991  0.56800716    -0.05300
C694        C  0.62747027  0.30315154  0.52935368    -0.23700
C695        C  0.62812851  0.24969619  0.53548081     0.12600
C696        C  0.62586168  0.22830524  0.57808497    -0.12900
N697        N  0.62164184  0.34460372  0.64933445     0.64300
H698        H  0.62522519  0.37448623  0.56405229     0.12100
N699        N  0.63019011  0.21628224  0.49812243     0.60900
H700        H  0.62552848  0.18739198  0.58145160     0.08300
O701        O  0.68151086  0.17490103  0.79780346    -0.40500
O702        O  0.65576357  0.10634001  0.77945137    -0.39700
O703        O  0.56028724  0.24678600  0.56773958    -0.39700
O704        O  0.55110938  0.28714762  0.62469357    -0.37400
O705        O  0.65264523  0.21483364  0.49236562    -0.38300
O706        O  0.61079827  0.18452748  0.47483981    -0.34500
O707        O  0.63450846  0.33356777  0.69679763    -0.35900
O708        O  0.60899126  0.38665750  0.63619713    -0.40200
C709        C  0.62892664  0.25506439  0.08202654    -0.13900
C710        C  0.61800412  0.22824020  0.11137984     0.16500
C711        C  0.61020620  0.17693278  0.09974290     0.02800
C712        C  0.61317891  0.15370079  0.05850204    -0.12400
C713        C  0.62381342  0.18072155  0.02860115    -0.03400
C714        C  0.63204857  0.23189407  0.04108803     0.02100
C715        C  0.61353597  0.25550157  0.15219587     0.08900
N716        N  0.59888517  0.14830890  0.12890528     0.65300
H717        H  0.60628717  0.11483508  0.04875901     0.18200
N718        N  0.64327640  0.26108832  0.01220117     0.75700
H719        H  0.63482983  0.29448126  0.09074672     0.09700
C720        C  0.63634636  0.27619683  0.19570953     0.03400
C721        C  0.63084418  0.30314398  0.23232076    -0.05300
C722        C  0.60311678  0.30962464  0.22706294    -0.23700
C723        C  0.58026857  0.29067092  0.18202538     0.12600
C724        C  0.58579296  0.26338526  0.14562659    -0.12900
N725        N  0.66519486  0.26854519  0.20445421     0.64300
H726        H  0.64859116  0.31701394  0.26643793     0.12100
N727        N  0.55140056  0.29833857  0.17249218     0.60900
H728        H  0.56825787  0.24882672  0.11145193     0.08300
O729        O  0.66504006  0.24606424  0.00825999    -0.40500
O730        O  0.63258067  0.30355911  0.99347276    -0.39700
O731        O  0.57731958  0.12084936  0.10589212    -0.39700
O732        O  0.61120849  0.14832917  0.17772654    -0.37400
O733        O  0.54163442  0.34281000  0.16704742    -0.38300
O734        O  0.53452967  0.26126151  0.16003987    -0.34500
O735        O  0.68346569  0.30254972  0.22617787    -0.35900
O736        O  0.67312319  0.22609910  0.19532833    -0.40200
C737        C  0.03485546  0.13843055  0.27817332    -0.13900
C738        C  0.50546145  0.14420042  0.27062269     0.16500
C739        C  0.50167417  0.18003891  0.30340524     0.02800
C740        C  0.52291631  0.21596593  0.32895481    -0.12400
C741        C  0.54784622  0.21772340  0.32209954    -0.03400
C742        C  0.55236936  0.17975572  0.29191581     0.02100
C743        C  0.98659668  0.09999809  0.24571414     0.08900
N744        N  0.47577734  0.18253706  0.30872554     0.65300
H745        H  0.51907343  0.24490466  0.35173875     0.18200
N746        N  0.57775660  0.17836424  0.28498859     0.75700
H747        H  0.04106040  0.10650626  0.26186420     0.09700
C748        C  0.97568295  0.09451218  0.19161837     0.03400
C749        C  0.95633959  0.05556158  0.16638776    -0.05300
C750        C  0.94783970  0.02106551  0.19429149    -0.23700
C751        C  0.95770236  0.02834325  0.24826638     0.12600
C752        C  0.97704062  0.06735560  0.27331841    -0.12900
N753        N  0.98420898  0.12803121  0.16182594     0.64300
H754        H  0.94934888  0.05046777  0.12523972     0.12100
N755        N  0.94853981  0.99609442  0.27826850     0.60900
H756        H  0.48370921  0.07444646  0.31162423     0.08300
O757        O  0.08549486  0.16232646  0.26602766    -0.40500
O758        O  0.60132421  0.17215925  0.32370996    -0.39700
O759        O  0.47639250  0.19102991  0.35240161    -0.39700
O760        O  0.45223443  0.18156081  0.26916692    -0.37400
O761        O  0.92247190  0.98967608  0.26496465    -0.38300
O762        O  0.46686489  0.97924907  0.31716129    -0.34500
O763        O  0.00766314  0.12139692  0.16053908    -0.35900
O764        O  0.96652569  0.15859708  0.13042021    -0.40200
C765        C  0.46977549  0.63423302  0.20157437    -0.13900
C766        C  0.99781597  0.63935616  0.21837528     0.16500
C767        C  0.00266814  0.67750855  0.18876981     0.02800
C768        C  0.98234796  0.71552885  0.16603012    -0.12400
C769        C  0.95731102  0.71685882  0.17256798    -0.03400
C770        C  0.95148930  0.67621583  0.19861843     0.02100
C771        C  0.51837099  0.59834919  0.24215278     0.08900
N772        N  0.02871825  0.68008435  0.18400264     0.65300
H773        H  0.98700117  0.74605455  0.14563690     0.18200
N774        N  0.92571823  0.67392169  0.20419110     0.75700
H775        H  0.46197909  0.59808369  0.20794774     0.09700
C776        C  0.53727671  0.60076844  0.29532336     0.03400
C777        C  0.55619463  0.56055893  0.31812451    -0.05300
C778        C  0.55639753  0.51769070  0.28932678    -0.23700
C779        C  0.53821993  0.51698611  0.23547619     0.12600
C780        C  0.51923221  0.55683415  0.21284312    -0.12900
N781        N  0.53686868  0.64261842  0.32700941     0.64300
H782        H  0.56966341  0.56157447  0.35936620     0.12100
N783        N  0.53813144  0.47563714  0.20325504     0.60900
H784        H  0.02132971  0.57086386  0.17923263     0.08300
O785        O  0.41306314  0.68589974  0.20282267    -0.40500
O786        O  0.90239771  0.66961537  0.16452430    -0.39700
O787        O  0.02841386  0.69091957  0.14094989    -0.39700
O788        O  0.05214675  0.67675266  0.22362353    -0.37400
O789        O  0.51571671  0.45074294  0.17854595    -0.38300
O790        O  0.08409258  0.48771987  0.23362854    -0.34500
O791        O  0.51371596  0.66219669  0.32098593    -0.35900
O792        O  0.55944329  0.65681844  0.36454211    -0.40200
C793        C  0.73352809  0.44318312  0.45005349    -0.13900
C794        C  0.73854437  0.48281743  0.48579261     0.16500
C795        C  0.71638888  0.49848535  0.49759482     0.02800
C796        C  0.68988123  0.47485351  0.47322056    -0.12400
C797        C  0.68484785  0.43468836  0.43812779    -0.03400
C798        C  0.70691929  0.41905472  0.42589368     0.02100
C799        C  0.76684280  0.50805846  0.50977256     0.08900
N800        N  0.72075879  0.53675552  0.53582685     0.65300
H801        H  0.67328925  0.48665067  0.48356304     0.18200
N802        N  0.70234978  0.38096843  0.38740908     0.75700
H803        H  0.75030032  0.43180277  0.44005857     0.09700
C804        C  0.79169053  0.48024238  0.53892015     0.03400
C805        C  0.81796913  0.50494500  0.55941075    -0.05300
C806        C  0.82045783  0.55730346  0.55201586    -0.23700
C807        C  0.79547958  0.58521439  0.52268969     0.12600
C808        C  0.76904036  0.56042113  0.50253079    -0.12900
N809        N  0.79060048  0.42710277  0.54898640     0.64300
H810        H  0.83670212  0.48275775  0.58198807     0.12100
N811        N  0.79650986  0.63767948  0.51032606     0.60900
H812        H  0.75008050  0.58182696  0.47941213     0.08300
O813        O  0.72222395  0.35162863  0.39171037    -0.40500
O814        O  0.67982563  0.38101329  0.34580034    -0.39700
O815        O  0.70150667  0.56852373  0.52912247    -0.39700
O816        O  0.74249870  0.53554220  0.57872294    -0.37400
O817        O  0.81121554  0.65126721  0.48756087    -0.38300
O818        O  0.77898980  0.66854049  0.51345640    -0.34500
O819        O  0.80869831  0.39717959  0.54652966    -0.35900
O820        O  0.77313206  0.41061973  0.56465077    -0.40200
C821        C  0.51720129  0.42145425  0.49085281    -0.13900
C822        C  0.50602710  0.47048701  0.47818596     0.16500
C823        C  0.50408404  0.49387235  0.43257337     0.02800
C824        C  0.51449672  0.46874499  0.40158260    -0.12400
C825        C  0.52711356  0.42084810  0.41601130    -0.03400
C826        C  0.52754606  0.39631424  0.45994681     0.02100
C827        C  0.99605030  0.48944424  0.52433923     0.08900
N828        N  0.99249356  0.54053085  0.43171186     0.65300
H829        H  0.51485992  0.48839297  0.36871300     0.18200
N830        N  0.54016401  0.34720827  0.47530097     0.75700
H831        H  0.51815302  0.40294005  0.52527005     0.09700
C832        C  0.47238622  0.47343861  0.51849226     0.03400
C833        C  0.96741074  0.48965832  0.57117462    -0.05300
C834        C  0.97854713  0.53695702  0.59288736    -0.23700
C835        C  0.99964803  0.55957178  0.58234518     0.12600
C836        C  0.00866504  0.53516364  0.54882107    -0.12900
N837        N  0.45761294  0.42942441  0.48993013     0.64300
H838        H  0.44449020  0.48188250  0.55414202     0.12100
N839        N  0.01080005  0.60835473  0.60298315     0.60900
H840        H  0.02508760  0.55227572  0.54113330     0.08300
O841        O  0.53520334  0.31260116  0.44219690    -0.40500
O842        O  0.55688284  0.33874471  0.52198087    -0.39700
O843        O  0.00908524  0.57762048  0.44024268    -0.39700
O844        O  0.96673632  0.54844326  0.42009751    -0.37400
O845        O  0.02083154  0.61615174  0.65105004    -0.38300
O846        O  0.01076802  0.64371227  0.57327195    -0.34500
O847        O  0.44775354  0.39741472  0.51048243    -0.35900
O848        O  0.45124657  0.42569827  0.44231997    -0.40200
loop_ 
_geom_bond_atom_site_label_1 
_geom_bond_atom_site_label_2 
_geom_bond_distance 
_geom_bond_site_symmetry_2 
_ccdc_geom_bond_type 
O1           C16   1.267       .  A
O1           Al9   1.937       .  S
C2           O12   1.268       .  A
C2            O3   1.256       .  A
C2          C270   1.492       .  S
O3           Al5   1.874       .  S
O4            C6   1.272       .  A
O4           Al5   1.963       .  S
Al5          O13   1.965       .  S
Al5          O15   1.889       .  S
Al5          O14   1.770       .  S
C6           O19   1.260       .  A
C6          C317   1.494       .  S
O7           C17   1.265       .  A
O7           Al9   1.949       .  S
O8           C21   1.272       .  A
O8          Al18   1.950       .  S
Al9          O22   1.875       .  S
Al9          O19   1.880       .  S
Al9          O14   1.773       .  S
O10          C17   1.252       .  A
O10         Al18   1.859       .  S
O11          C20   1.257       .  A
O11         Al18   1.871       .  S
O12         Al18   1.942       .  S
O13          C20   1.273       .  A
O14         Al18   1.771       .  S
O15          C16   1.261       .  A
C16         C298   1.487       .  S
C17         C401   1.461       .  S
C20         C373   1.487       .  S
C21          O22   1.260       .  A
C21         C354   1.484       .  S
O23          C38   1.261       .  A
O23         Al31   1.884       .  S
C24          O34   1.255       .  A
C24          O25   1.266       .  A
C24         C289   1.484   1_556  S
O25         Al27   1.936       .  S
O26          C28   1.252       .  A
O26         Al27   1.867       .  S
Al27         O35   1.866       .  S
Al27         O37   1.956       .  S
Al27         O36   1.766       .  S
C28          O41   1.268       .  A
C28         C177   1.460       .  S
O29          C39   1.258       .  A
O29         Al31   1.864       .  S
O30          C43   1.260       .  A
O30         Al40   1.883       .  S
Al31         O44   1.936       .  S
Al31         O41   1.955       .  S
Al31         O36   1.771       .  S
O32          C39   1.272       .  A
O32         Al40   1.958       .  S
O33          C42   1.275       .  A
O33         Al40   1.971       .  S
O34         Al40   1.876       .  S
O35          C42   1.258       .  A
O36         Al40   1.772       .  S
O37          C38   1.271       .  A
C38         C214   1.487   1_545  S
C39         C242   1.477       .  S
C42         C158   1.490       .  S
C43          O44   1.269       .  A
C43         C261   1.489       .  S
O45          C60   1.258       .  A
O45         Al53   1.879       .  S
C46          O56   1.258       .  A
C46          O47   1.265       .  A
C46         C121   1.486       .  S
O47         Al49   1.936       .  S
O48          C50   1.252       .  A
O48         Al49   1.857       .  S
Al49         O57   1.869       .  S
Al49         O59   1.947       .  S
Al49         O58   1.766       .  S
C50          O63   1.268       .  A
C50         C410   1.463       .  S
O51          C61   1.259       .  A
O51         Al53   1.874       .  S
O52          C65   1.260       .  A
O52         Al62   1.878       .  S
Al53         O66   1.945       .  S
Al53         O63   1.964       .  S
Al53         O58   1.775       .  S
O54          C61   1.272       .  A
O54         Al62   1.961       .  S
O55          C64   1.275       .  A
O55         Al62   1.972       .  S
O56         Al62   1.875       .  S
O57          C64   1.259       .  A
O58         Al62   1.772       .  S
O59          C60   1.270       .  A
C60         C233   1.489       .  S
C61         C205   1.491       .  S
C64         C382   1.500       .  S
C65          O66   1.271       .  A
C65          C93   1.489       .  S
O67          C82   1.271       .  A
O67         Al75   1.950       .  S
C68          O78   1.271       .  A
C68          O69   1.255       .  A
C68         C102   1.487   1_554  S
O69         Al71   1.865       .  S
O70          C72   1.270       .  A
O70         Al71   1.953       .  S
Al71         O79   1.958       .  S
Al71         O81   1.878       .  S
Al71         O80   1.774       .  S
C72          O85   1.257       .  A
C72         C345   1.487       .  S
O73          C83   1.269       .  A
O73         Al75   1.963       .  S
O74          C87   1.271       .  A
O74         Al84   1.955       .  S
Al75         O88   1.874       .  S
Al75         O85   1.863       .  S
Al75         O80   1.770       .  S
O76          C83   1.252       .  A
O76         Al84   1.847       .  S
O77          C86   1.257       .  A
O77         Al84   1.872       .  S
O78         Al84   1.953       .  S
O79          C86   1.272       .  A
O80         Al84   1.768       .  S
O81          C82   1.261       .  A
C82         C130   1.483       .  S
C83         C186   1.475       .  S
C86         C149   1.485       .  S
C87          O88   1.258       .  A
C87         C326   1.489   1_565  S
C89          C90   1.401       .  A
C89          C94   1.404       .  A
C89          H99   1.083       .  S
C90          C95   1.487       .  S
C90          C91   1.415       .  A
C91          C92   1.403       .  A
C91          N96   1.436       .  S
C92          C93   1.405       .  A
C92          H97   1.083       .  S
C93          C94   1.420       .  A
C94          N98   1.436       .  S
C95         C100   1.418       .  A
C95         C104   1.399       .  A
N96         O111   1.262       .  A
N96         O112   1.261       .  A
N98         O109   1.263       .  A
N98         O110   1.263       .  A
C100        C101   1.410       .  A
C100        N105   1.437       .  S
C101        C102   1.405       .  A
C101        H106   1.082       .  S
C102        C103   1.419       .  A
C103        C104   1.396       .  A
C103        N107   1.431   1_556  S
C104        H108   1.083       .  S
N105        O115   1.263       .  A
N105        O116   1.263       .  A
N107        O113   1.261       .  A
N107        O114   1.261       .  A
C117        C118   1.405       .  A
C117        C122   1.405       .  A
C117        H127   1.083       .  S
C118        C123   1.488       .  S
C118        C119   1.413       .  A
C119        C120   1.401       .  A
C119        N124   1.438       .  S
C120        C121   1.406       .  A
C120        H125   1.083       .  S
C121        C122   1.416       .  A
C122        N126   1.433       .  S
C123        C128   1.415       .  A
C123        C132   1.404       .  A
N124        O139   1.262       .  A
N124        O140   1.263       .  A
N126        O137   1.262       .  A
N126        O138   1.262       .  A
C128        C129   1.405       .  A
C128        N133   1.437       .  S
C129        C130   1.406       .  A
C129        H134   1.083       .  S
C130        C131   1.414       .  A
C131        C132   1.401       .  A
C131        N135   1.434       .  S
C132        H136   1.083       .  S
N133        O143   1.263       .  A
N133        O144   1.262       .  A
N135        O141   1.262       .  A
N135        O142   1.262       .  A
C145        C146   1.407       .  A
C145        C150   1.404       .  A
C145        H155   1.084   1_554  S
C146        C151   1.493   1_564  S
C146        C147   1.415   1_565  A
C147        C148   1.405   1_545  A
C147        N152   1.440       .  S
C148        C149   1.407       .  A
C148        H153   1.084       .  S
C149        C150   1.411       .  A
C150        N154   1.432       .  S
C151        C156   1.422       .  A
C151        C160   1.398   1_546  A
N152        O167   1.263       .  A
N152        O168   1.263       .  A
N154        O165   1.262   1_554  A
N154        O166   1.262       .  A
C156        C157   1.413       .  A
C156        N161   1.439       .  S
C157        C158   1.404       .  A
C157        H162   1.083       .  S
C158        C159   1.419       .  A
C159        C160   1.397   1_546  A
C159        N163   1.433   1_545  S
C160        H164   1.084       .  S
N161        O171   1.262       .  A
N161        O172   1.263       .  A
N163        O169   1.262       .  A
N163        O170   1.262   1_566  A
C173        C174   1.404   1_545  A
C173        C178   1.396       .  A
C173        H607   1.081   1_556  S
C174        C179   1.481   1_456  S
C174        C175   1.418       .  A
C175        C176   1.401       .  A
C175        N180   1.439       .  S
C176        C177   1.401   1_565  A
C176        H181   1.082       .  S
C177        C178   1.407       .  A
C178        N606   1.430       .  S
C179        C608   1.419   1_655  A
C179        C612   1.397   1_554  A
N180        O195   1.263       .  A
N180        O196   1.263       .  A
N182        C602   1.436       .  S
N182        O193   1.262       .  A
N182        O618   1.262       .  A
H183        C597   1.079       .  S
C184        C185   1.408       .  A
C184        C603   1.420       .  A
C184        N189   1.438   1_565  S
C185        C186   1.401       .  A
C185        H190   1.081       .  S
C186        C187   1.413       .  A
C187        C188   1.390   1_554  A
C187        N191   1.430   1_554  S
C188        C603   1.397   1_556  A
C188        H616   1.081       .  S
N189        O199   1.263       .  A
N189        O624   1.263       .  A
N191        O197   1.262       .  A
N191        O198   1.261   1_556  A
H192        C612   1.082       .  S
O194        N606   1.262       .  A
O200        N613   1.263       .  A
C201        C206   1.408       .  A
C201        C626   1.404       .  A
C201        H211   1.083       .  S
C202        C207   1.483       .  S
C202        C203   1.409       .  A
C202        C625   1.404   1_455  A
C203        C628   1.403   1_455  A
C203        N208   1.438       .  S
C204        C205   1.411       .  A
C204        C627   1.399       .  A
C204        H209   1.083       .  S
C205        C206   1.418       .  A
C206        N210   1.433       .  S
C207        C212   1.406       .  A
C207        C216   1.405       .  A
N208        O223   1.263       .  A
N208        O224   1.263       .  A
N210        O221   1.262       .  A
N210        O222   1.262       .  A
C212        C213   1.400       .  A
C212        N217   1.434   1_455  S
C213        C214   1.409       .  A
C213        H218   1.083   1_565  S
C214        C215   1.412       .  A
C215        C216   1.406       .  A
C215        N219   1.429       .  S
C216        H220   1.083       .  S
N217        O227   1.262       .  A
N217        O228   1.262       .  A
N219        O225   1.262       .  A
N219        O226   1.262       .  A
C229        C230   1.399       .  A
C229        C234   1.404       .  A
C229        H663   1.083       .  S
C230        C659   1.478       .  S
C230        C231   1.409       .  A
C231        C232   1.402       .  A
C231        N236   1.434       .  S
C232        C233   1.408       .  A
C232        H237   1.082       .  S
C233        C234   1.421       .  A
C234        N238   1.435       .  S
C235        C654   1.476   1_455  S
C235        C240   1.411       .  A
C235        C668   1.396       .  A
N236        O251   1.262       .  A
N236        O252   1.262       .  A
N238        O249   1.263       .  A
N238        O250   1.262       .  A
H239        C653   1.084       .  S
C240        C241   1.404       .  A
C240        N245   1.433       .  S
C241        C242   1.403       .  A
C241        H246   1.083       .  S
C242        C243   1.416       .  A
C243        C668   1.398       .  A
C243        N247   1.433       .  S
C244        C659   1.394       .  A
C244        C667   1.396       .  A
C244        H248   1.084       .  S
N245        O255   1.262       .  A
N245        O256   1.262       .  A
N247        O253   1.263   1_455  A
N247        O678   1.261       .  A
O254        N671   1.261       .  A
C257        C258   1.400       .  A
C257        C262   1.404       .  A
C257        H267   1.084       .  S
C258        C263   1.479       .  S
C258        C259   1.409       .  A
C259        C260   1.402       .  A
C259        N264   1.435       .  S
C260        C261   1.408       .  A
C260        H265   1.083       .  S
C261        C262   1.420       .  A
C262        N266   1.435       .  S
C263        C268   1.408       .  A
C263        C272   1.397       .  A
N264        O279   1.262       .  A
N264        O280   1.262       .  A
N266        O277   1.262       .  A
N266        O278   1.263       .  A
C268        C269   1.405       .  A
C268        N273   1.431       .  S
C269        C270   1.409       .  A
C269        H274   1.083       .  S
C270        C271   1.421       .  A
C271        C272   1.399       .  A
C271        N275   1.431       .  S
C272        H276   1.084       .  S
N273        O283   1.262       .  A
N273        O284   1.262       .  A
N275        O281   1.262       .  A
N275        O282   1.262       .  A
C285        C286   1.401       .  A
C285        C290   1.400       .  A
C285        H295   1.083       .  S
C286        C291   1.483       .  S
C286        C287   1.413       .  A
C287        C288   1.404       .  A
C287        N292   1.435       .  S
C288        C289   1.405       .  A
C288        H293   1.083       .  S
C289        C290   1.416       .  A
C290        N294   1.431       .  S
C291        C296   1.412       .  A
C291        C300   1.402       .  A
N292        O307   1.262       .  A
N292        O308   1.262       .  A
N294        O305   1.262       .  A
N294        O306   1.262   1_554  A
C296        C297   1.404       .  A
C296        N301   1.437       .  S
C297        C298   1.407       .  A
C297        H302   1.079       .  S
C298        C299   1.415       .  A
C299        C300   1.400       .  A
C299        N303   1.430       .  S
C300        H304   1.082       .  S
N301        O311   1.262       .  A
N301        O312   1.263       .  A
N303        O309   1.262       .  A
N303        O310   1.262       .  A
C313        C738   1.406       .  A
C313        C742   1.406       .  A
C313        H323   1.082       .  S
C314        C743   1.488   1_455  S
C314        C315   1.409   1_455  A
C314        C737   1.404       .  A
C315        C316   1.402   1_655  A
C315        N320   1.434       .  S
C316        C317   1.410       .  A
C316        H321   1.083       .  S
C317        C318   1.416       .  A
C318        C737   1.408       .  A
C318        N322   1.433       .  S
C319        C738   1.489       .  S
C319        C324   1.411       .  A
C319        C328   1.402       .  A
N320        O335   1.262       .  A
N320        O336   1.262       .  A
N322        O334   1.262       .  A
N322        O757   1.262       .  A
C324        C325   1.404       .  A
C324        N329   1.433       .  S
C325        C326   1.406       .  A
C325        H330   1.082       .  S
C326        C327   1.419       .  A
C327        C328   1.403       .  A
C327        N331   1.435   1_545  S
C328        H756   1.082       .  S
N329        O339   1.262       .  A
N329        O340   1.262       .  A
N331        O337   1.263       .  A
N331        O762   1.262       .  A
H332        C752   1.083       .  S
O333        N746   1.262       .  A
O338        N755   1.262       .  A
C341        C766   1.405       .  A
C341        C770   1.403       .  A
C341        H351   1.083       .  S
C342        C771   1.476       .  S
C342        C343   1.407       .  A
C342        C765   1.403       .  A
C343        C344   1.397       .  A
C343        N348   1.438       .  S
C344        C345   1.410       .  A
C344        H349   1.083       .  S
C345        C346   1.414       .  A
C346        C765   1.404       .  A
C346        N350   1.431       .  S
C347        C766   1.483   1_455  S
C347        C352   1.408       .  A
C347        C356   1.401       .  A
N348        O363   1.263       .  A
N348        O364   1.263       .  A
N350        O362   1.262       .  A
N350        O785   1.262       .  A
C352        C353   1.400       .  A
C352        N357   1.431       .  S
C353        C354   1.406       .  A
C353        H358   1.083       .  S
C354        C355   1.419       .  A
C355        C356   1.403       .  A
C355        N359   1.435       .  S
C356        H784   1.083       .  S
N357        O367   1.260       .  A
N357        O368   1.262       .  A
N359        O365   1.262       .  A
N359        O790   1.263       .  A
H360        C780   1.084       .  S
O361        N774   1.262       .  A
O366        N783   1.262       .  A
C369        C370   1.410       .  A
C369        C374   1.411       .  A
C369        H379   1.082       .  S
C370        C375   1.495       .  S
C370        C371   1.413       .  A
C371        C372   1.404       .  A
C371        N376   1.439       .  S
C372        C373   1.407       .  A
C372        H377   1.083       .  S
C373        C374   1.412       .  A
C374        N378   1.436       .  S
C375        C380   1.409       .  A
C375        C384   1.408       .  A
N376        O391   1.262       .  A
N376        O392   1.263       .  A
N378        O389   1.262       .  A
N378        O390   1.262       .  A
C380        C381   1.403       .  A
C380        N385   1.436       .  S
C381        C382   1.412       .  A
C381        H386   1.082       .  S
C382        C383   1.417       .  A
C383        C384   1.411       .  A
C383        N387   1.434       .  S
C384        H388   1.083       .  S
N385        O395   1.262       .  A
N385        O396   1.263       .  A
N387        O393   1.263       .  A
N387        O394   1.262       .  A
C397        C398   1.402       .  A
C397        C402   1.400       .  A
C397        H407   1.082       .  S
C398        C827   1.479   1_455  S
C398        C399   1.408       .  A
C399        C400   1.400       .  A
C399        N828   1.430   1_455  S
C400        C401   1.403       .  A
C400        H405   1.083       .  S
C401        C402   1.412       .  A
C402        N406   1.440       .  S
C403        C822   1.475       .  S
C403        C412   1.409       .  A
C403        C832   1.411       .  A
N404        C823   1.430       .  S
N404        O419   1.262       .  A
N404        O420   1.262       .  A
N406        O417   1.263       .  A
N406        O418   1.262       .  A
C408        C827   1.408       .  A
C408        C833   1.397       .  A
C408        N413   1.438       .  S
C409        C410   1.403       .  A
C409        C832   1.395       .  A
C409        H838   1.081       .  S
C410        C411   1.401       .  A
C411        C412   1.404       .  A
C411        N415   1.428       .  S
C412        H416   1.081       .  S
N413        O423   1.261       .  A
N413        O424   1.263       .  A
H414        C833   1.078       .  S
N415        O421   1.262       .  A
N415        O422   1.262       .  A
O425        C440   1.267       .  A
O425       Al433   1.938       .  S
C426        O436   1.268       .  A
C426        O427   1.257       .  A
C426        C694   1.490       .  S
O427       Al429   1.874       .  S
O428        C430   1.272       .  A
O428       Al429   1.965       .  S
Al429       O437   1.969       .  S
Al429       O439   1.889       .  S
Al429       O438   1.769       .  S
C430        O443   1.259       .  A
C430        C741   1.487       .  S
O431        C441   1.265       .  A
O431       Al433   1.949       .  S
O432        C445   1.272       .  A
O432       Al442   1.947       .  S
Al433       O446   1.874       .  S
Al433       O443   1.875       .  S
Al433       O438   1.771       .  S
O434        C441   1.253       .  A
O434       Al442   1.861       .  S
O435        C444   1.257       .  A
O435       Al442   1.872       .  S
O436       Al442   1.941       .  S
O437        C444   1.274       .  A
O438       Al442   1.768       .  S
O439        C440   1.262       .  A
C440        C722   1.490       .  S
C441        C825   1.462       .  S
C444        C797   1.490       .  S
C445        O446   1.258       .  A
C445        C778   1.487       .  S
O447        C462   1.261       .  A
O447       Al455   1.886       .  S
C448        O458   1.255       .  A
C448        O449   1.267       .  A
C448        C713   1.481   1_556  S
O449       Al451   1.939       .  S
O450        C452   1.252       .  A
O450       Al451   1.860       .  S
Al451       O459   1.867       .  S
Al451       O461   1.955       .  S
Al451       O460   1.767       .  S
C452        O465   1.269       .  A
C452        C601   1.459       .  S
O453        C463   1.257       .  A
O453       Al455   1.868       .  S
O454        C467   1.257       .  A
O454       Al464   1.874       .  S
Al455       O468   1.944       .  S
Al455       O465   1.960       .  S
Al455       O460   1.770       .  S
O456        C463   1.274       .  A
O456       Al464   1.966       .  S
O457        C466   1.275       .  A
O457       Al464   1.966       .  S
O458       Al464   1.871       .  S
O459        C466   1.259       .  A
O460       Al464   1.770       .  S
O461        C462   1.271       .  A
C462        C638   1.491   1_545  S
C463        C666   1.487       .  S
C466        C582   1.493       .  S
C467        O468   1.270       .  A
C467        C685   1.482       .  S
O469        C484   1.258       .  A
O469       Al477   1.875       .  S
C470        O480   1.257       .  A
C470        O471   1.266       .  A
C470        C545   1.490       .  S
O471       Al473   1.938       .  S
O472        C474   1.252       .  A
O472       Al473   1.862       .  S
Al473       O481   1.867       .  S
Al473       O483   1.957       .  S
Al473       O482   1.767       .  S
C474        O487   1.268       .  A
C474        C834   1.463       .  S
O475        C485   1.259       .  A
O475       Al477   1.870       .  S
O476        C489   1.259       .  A
O476       Al486   1.881       .  S
Al477       O490   1.943       .  S
Al477       O487   1.966       .  S
Al477       O482   1.772       .  S
O478        C485   1.274       .  A
O478       Al486   1.963       .  S
O479        C488   1.276       .  A
O479       Al486   1.974       .  S
O480       Al486   1.873       .  S
O481        C488   1.258       .  A
O482       Al486   1.768       .  S
O483        C484   1.272       .  A
C484        C657   1.490       .  S
C485        C629   1.490       .  S
C488        C806   1.497       .  S
C489        O490   1.270       .  A
C489        C517   1.490       .  S
O491        C506   1.272       .  A
O491       Al499   1.945       .  S
C492        O502   1.272       .  A
C492        O493   1.255       .  A
C492        C526   1.489   1_554  S
O493       Al495   1.865       .  S
O494        C496   1.269       .  A
O494       Al495   1.951       .  S
Al495       O503   1.959       .  S
Al495       O505   1.887       .  S
Al495       O504   1.776       .  S
C496        O509   1.258       .  A
C496        C769   1.485       .  S
O497        C507   1.267       .  A
O497       Al499   1.954       .  S
O498        C511   1.272       .  A
O498       Al508   1.956       .  S
Al499       O512   1.878       .  S
Al499       O509   1.876       .  S
Al499       O504   1.771       .  S
O500        C507   1.250       .  A
O500       Al508   1.843       .  S
O501        C510   1.257       .  A
O501       Al508   1.874       .  S
O502       Al508   1.955       .  S
O503        C510   1.270       .  A
O504       Al508   1.768       .  S
O505        C506   1.264       .  A
C506        C554   1.488       .  S
C507        C610   1.475       .  S
C510        C573   1.487       .  S
C511        O512   1.259       .  A
C511        C750   1.489   1_565  S
C513        C514   1.401       .  A
C513        C518   1.403       .  A
C513        H523   1.083       .  S
C514        C519   1.490       .  S
C514        C515   1.416       .  A
C515        C516   1.403       .  A
C515        N520   1.436       .  S
C516        C517   1.406       .  A
C516        H521   1.082       .  S
C517        C518   1.419       .  A
C518        N522   1.433       .  S
C519        C524   1.418       .  A
C519        C528   1.398       .  A
N520        O535   1.262       .  A
N520        O536   1.262       .  A
N522        O533   1.262       .  A
N522        O534   1.262       .  A
C524        C525   1.411       .  A
C524        N529   1.437       .  S
C525        C526   1.405       .  A
C525        H530   1.082       .  S
C526        C527   1.420       .  A
C527        C528   1.395       .  A
C527        N531   1.432   1_556  S
C528        H532   1.083       .  S
N529        O539   1.262       .  A
N529        O540   1.263       .  A
N531        O537   1.262       .  A
N531        O538   1.262       .  A
C541        C542   1.402       .  A
C541        C546   1.404       .  A
C541        H551   1.083       .  S
C542        C547   1.479       .  S
C542        C543   1.407       .  A
C543        C544   1.400       .  A
C543        N548   1.434       .  S
C544        C545   1.410       .  A
C544        H549   1.083       .  S
C545        C546   1.415       .  A
C546        N550   1.429       .  S
C547        C552   1.411       .  A
C547        C556   1.400       .  A
N548        O563   1.262       .  A
N548        O564   1.262       .  A
N550        O561   1.262       .  A
N550        O562   1.262       .  A
C552        C553   1.405       .  A
C552        N557   1.437       .  S
C553        C554   1.409       .  A
C553        H558   1.083       .  S
C554        C555   1.416       .  A
C555        C556   1.401       .  A
C555        N559   1.432       .  S
C556        H560   1.084       .  S
N557        O567   1.262       .  A
N557        O568   1.262       .  A
N559        O565   1.262       .  A
N559        O566   1.262       .  A
C569        C570   1.407   1_554  A
C569        C574   1.409       .  A
C569        H579   1.083       .  S
C570        C575   1.488   1_565  S
C570        C571   1.409       .  A
C571        C572   1.402   1_556  A
C571        N576   1.437   1_565  S
C572        C573   1.408       .  A
C572        H577   1.083       .  S
C573        C574   1.412       .  A
C574        N578   1.432       .  S
C575        C580   1.410   1_545  A
C575        C584   1.406       .  A
N576        O591   1.262       .  A
N576        O592   1.263       .  A
N578        O589   1.262       .  A
N578        O590   1.262       .  A
C580        C581   1.403   1_565  A
C580        N585   1.438       .  S
C581        C582   1.411       .  A
C581        H586   1.083   1_545  S
C582        C583   1.415       .  A
C583        C584   1.407       .  A
C583        N587   1.433       .  S
C584        H588   1.083   1_556  S
N585        O595   1.263       .  A
N585        O596   1.263       .  A
N587        O593   1.262   1_556  A
N587        O594   1.262       .  A
C597        C598   1.405   1_545  A
C597        C602   1.400       .  A
C598        C603   1.483   1_556  S
C598        C599   1.416       .  A
C599        C600   1.400       .  A
C599        N604   1.439       .  S
C600        C601   1.401   1_565  A
C600        H605   1.080       .  S
C601        C602   1.410       .  A
N604        O619   1.262       .  A
N604        O620   1.263       .  A
N606        O617   1.262       .  A
C608        C609   1.407   1_455  A
C608        N613   1.439       .  S
C609        C610   1.401       .  A
C609        H614   1.082   1_655  S
C610        C611   1.415       .  A
C611        C612   1.391   1_554  A
C611        N615   1.434   1_554  S
N613        O623   1.263   1_565  A
N615        O621   1.263       .  A
N615        O622   1.261   1_556  A
C625        C630   1.406       .  A
C625        H635   1.083       .  S
C626        C631   1.484       .  S
C626        C627   1.403       .  A
C627        N632   1.429       .  S
C628        C629   1.410       .  A
C628        H633   1.083       .  S
C629        C630   1.416       .  A
C630        N634   1.434       .  S
C631        C636   1.404       .  A
C631        C640   1.404       .  A
N632        O647   1.262       .  A
N632        O648   1.262       .  A
N634        O645   1.262       .  A
N634        O646   1.262       .  A
C636        C637   1.400       .  A
C636        N641   1.431       .  S
C637        C638   1.411       .  A
C637        H642   1.082   1_565  S
C638        C639   1.417       .  A
C639        C640   1.409       .  A
C639        N643   1.436       .  S
C640        H644   1.082       .  S
N641        O651   1.262       .  A
N641        O652   1.262       .  A
N643        O649   1.263       .  A
N643        O650   1.262       .  A
C653        C654   1.395       .  A
C653        C658   1.399       .  A
C654        C655   1.409       .  A
C655        C656   1.405       .  A
C655        N660   1.435       .  S
C656        C657   1.409       .  A
C656        H661   1.082       .  S
C657        C658   1.423       .  A
C658        N662   1.433       .  S
C659        C664   1.409       .  A
N660        O675   1.262       .  A
N660        O676   1.261       .  A
N662        O673   1.262       .  A
N662        O674   1.262       .  A
C664        C665   1.406       .  A
C664        N669   1.428       .  S
C665        C666   1.407       .  A
C665        H670   1.083       .  S
C666        C667   1.419       .  A
C667        N671   1.428       .  S
C668        H672   1.084   1_455  S
N669        O679   1.262       .  A
N669        O680   1.262       .  A
N671        O677   1.262       .  A
C681        C682   1.400       .  A
C681        C686   1.403       .  A
C681        H691   1.084       .  S
C682        C687   1.481       .  S
C682        C683   1.410       .  A
C683        C684   1.401       .  A
C683        N688   1.432       .  S
C684        C685   1.404       .  A
C684        H689   1.084       .  S
C685        C686   1.417       .  A
C686        N690   1.434       .  S
C687        C692   1.413       .  A
C687        C696   1.398       .  A
N688        O703   1.262       .  A
N688        O704   1.263       .  A
N690        O701   1.262       .  A
N690        O702   1.262       .  A
C692        C693   1.408       .  A
C692        N697   1.438       .  S
C693        C694   1.408       .  A
C693        H698   1.083       .  S
C694        C695   1.419       .  A
C695        C696   1.398       .  A
C695        N699   1.432       .  S
C696        H700   1.084       .  S
N697        O707   1.263       .  A
N697        O708   1.263       .  A
N699        O705   1.262       .  A
N699        O706   1.262       .  A
C709        C710   1.400       .  A
C709        C714   1.400       .  A
C709        H719   1.083       .  S
C710        C715   1.482       .  S
C710        C711   1.412       .  A
C711        C712   1.404       .  A
C711        N716   1.434       .  S
C712        C713   1.405       .  A
C712        H717   1.083       .  S
C713        C714   1.416       .  A
C714        N718   1.433       .  S
C715        C720   1.411       .  A
C715        C724   1.402       .  A
N716        O731   1.262       .  A
N716        O732   1.262       .  A
N718        O729   1.262       .  A
N718        O730   1.262   1_554  A
C720        C721   1.403       .  A
C720        N725   1.439       .  S
C721        C722   1.409       .  A
C721        H726   1.080       .  S
C722        C723   1.418       .  A
C723        C724   1.403       .  A
C723        N727   1.434       .  S
C724        H728   1.082       .  S
N725        O735   1.262       .  A
N725        O736   1.263       .  A
N727        O733   1.262       .  A
N727        O734   1.262       .  A
C737        H747   1.083       .  S
C738        C739   1.411       .  A
C739        C740   1.403       .  A
C739        N744   1.436       .  S
C740        C741   1.408       .  A
C740        H745   1.082       .  S
C741        C742   1.414       .  A
C742        N746   1.433       .  S
C743        C748   1.410       .  A
C743        C752   1.402       .  A
N744        O759   1.262       .  A
N744        O760   1.263       .  A
N746        O758   1.262       .  A
C748        C749   1.405       .  A
C748        N753   1.430       .  S
C749        C750   1.406       .  A
C749        H754   1.083       .  S
C750        C751   1.418       .  A
C751        C752   1.405       .  A
C751        N755   1.434   1_545  S
N753        O763   1.262   1_655  A
N753        O764   1.262       .  A
N755        O761   1.263       .  A
C765        H775   1.084       .  S
C766        C767   1.409   1_655  A
C767        C768   1.400   1_455  A
C767        N772   1.436       .  S
C768        C769   1.409       .  A
C768        H773   1.083       .  S
C769        C770   1.413       .  A
C770        N774   1.433       .  S
C771        C776   1.414       .  A
C771        C780   1.397       .  A
N772        O787   1.262       .  A
N772        O788   1.263       .  A
N774        O786   1.262       .  A
C776        C777   1.404       .  A
C776        N781   1.439       .  S
C777        C778   1.406       .  A
C777        H782   1.083       .  S
C778        C779   1.420       .  A
C779        C780   1.398       .  A
C779        N783   1.432       .  S
N781        O791   1.263       .  A
N781        O792   1.263       .  A
N783        O789   1.262       .  A
C793        C794   1.410       .  A
C793        C798   1.412       .  A
C793        H803   1.083       .  S
C794        C799   1.495       .  S
C794        C795   1.411       .  A
C795        C796   1.403       .  A
C795        N800   1.437       .  S
C796        C797   1.408       .  A
C796        H801   1.083       .  S
C797        C798   1.414       .  A
C798        N802   1.437       .  S
C799        C804   1.410       .  A
C799        C808   1.408       .  A
N800        O815   1.262       .  A
N800        O816   1.263       .  A
N802        O813   1.262       .  A
N802        O814   1.262       .  A
C804        C805   1.403       .  A
C804        N809   1.436       .  S
C805        C806   1.411       .  A
C805        H810   1.083       .  S
C806        C807   1.416       .  A
C807        C808   1.411       .  A
C807        N811   1.434       .  S
C808        H812   1.083       .  S
N809        O819   1.262       .  A
N809        O820   1.263       .  A
N811        O817   1.263       .  A
N811        O818   1.262       .  A
C821        C822   1.401       .  A
C821        C826   1.397       .  A
C821        H831   1.083       .  S
C822        C823   1.410       .  A
C823        C824   1.401       .  A
C824        C825   1.402       .  A
C824        H829   1.083       .  S
C825        C826   1.408       .  A
C826        N830   1.433       .  S
C827        C836   1.409   1_655  A
N828        O843   1.261   1_655  A
N828        O844   1.262       .  A
N830        O841   1.263       .  A
N830        O842   1.261       .  A
C832        N837   1.439       .  S
C833        C834   1.404       .  A
C834        C835   1.403       .  A
C835        C836   1.404   1_655  A
C835        N839   1.432   1_655  S
C836        H840   1.078       .  S
N837        O847   1.262       .  A
N837        O848   1.263       .  A
N839        O845   1.262       .  A
N839        O846   1.262       .  A
