geometry optimzed in LAMMPS
_audit_creation_date              2020-12-01 
_audit_creation_method            'lammps2cif' 
_symmetry_space_group_name_H-M    'P1' 
_symmetry_Int_Tables_number       1 
_symmetry_cell_setting            triclinic 
loop_ 
_symmetry_equiv_pos_as_xyz 
  x,y,z 
_cell_length_a                    28.98591343 
_cell_length_b                    43.119492864292134 
_cell_length_c                    54.57411251637464 
_cell_angle_alpha                 89.75002666184227 
_cell_angle_beta                  89.5184714892607 
_cell_angle_gamma                 89.85861370902833 
loop_ 
_atom_site_label 
_atom_site_type_symbol 
_atom_site_fract_x 
_atom_site_fract_y 
_atom_site_fract_z 
_atom_site_charge 
O1          O  0.39035776  0.94494682  0.33756500    -0.81400
C2          C  0.33134232  0.88245108  0.42305942     0.98000
O3          O  0.31850527  0.87487506  0.40161883    -0.70500
O4          O  0.28726540  0.92581099  0.38027984    -0.74100
Al5        Al  0.33133917  0.89537558  0.36996906     1.49000
C6          C  0.28868882  0.95475995  0.37647965     0.93300
O7          O  0.38805034  0.97284265  0.40278293    -0.80300
O8          O  0.46905111  0.90406415  0.38062077    -0.73800
Al9        Al  0.38845996  0.95589808  0.37064257     1.90100
O10         O  0.43377735  0.93788809  0.41853917    -0.72900
O11         O  0.41098200  0.85885488  0.39183563    -0.72800
O12         O  0.36939597  0.89605758  0.42597934    -0.78400
O13         O  0.37137708  0.86208233  0.35826752    -0.76600
O14         O  0.37881250  0.91734429  0.38089181    -1.12800
O15         O  0.33239388  0.91256911  0.33657859    -0.72000
C16         C  0.35990948  0.93105447  0.32571391     0.98800
C17         C  0.41632209  0.96462533  0.41885077     0.95200
Al18       Al  0.41730074  0.90048611  0.40244896     1.55600
O19         O  0.32551146  0.96744018  0.36943680    -0.76600
C20         C  0.40041237  0.84766738  0.37134709     0.99300
C21         C  0.48196740  0.92956092  0.37137357     0.94200
O22         O  0.45356651  0.95177785  0.36959186    -0.81900
O23         O  0.57067394  0.54868623  0.33141767    -0.81400
C24         C  0.64101762  0.61440885  0.41214215     0.98000
O25         O  0.65140636  0.62051682  0.38992446    -0.70500
O26         O  0.67889295  0.56694015  0.37107191    -0.74100
Al27       Al  0.63547898  0.59677632  0.36017925     1.49000
C28         C  0.67749432  0.53813484  0.36708412     0.93300
O29         O  0.57908706  0.52062904  0.39654888    -0.80300
O30         O  0.49767206  0.58937438  0.37906062    -0.73800
Al31       Al  0.57601391  0.53739704  0.36451618     1.90100
O32         O  0.54196097  0.55801202  0.41523395    -0.72900
O33         O  0.55727253  0.63484527  0.38266093    -0.72800
O34         O  0.60436846  0.60013134  0.41702256    -0.78400
O35         O  0.59522924  0.62915429  0.34793066    -0.76600
O36         O  0.58822124  0.57600581  0.37370801    -1.12800
O37         O  0.63352213  0.57597858  0.32789950    -0.72000
C38         C  0.60508611  0.55683315  0.31890082     0.98800
C39         C  0.55650068  0.53054294  0.41462760     0.95200
Al40       Al  0.55357757  0.59422339  0.39653277     1.55600
O41         O  0.64008190  0.52519018  0.36097659    -0.76600
C42         C  0.56720714  0.64432382  0.36131469     0.99300
C43         C  0.48248723  0.56381355  0.37150198     0.94200
O44         O  0.50998983  0.54179735  0.36656881    -0.81900
O45         O  0.38836401  0.03592206  0.15343296    -0.81400
C46         C  0.34406460  0.11701809  0.07606081     0.98000
O47         O  0.32780578  0.12033267  0.09769761    -0.70500
O48         O  0.29362189  0.06831159  0.11369867    -0.74100
Al49       Al  0.33792316  0.09533251  0.12738659     1.49000
C50         C  0.29362024  0.03921831  0.11176690     0.93300
O51         O  0.39884781  0.02548494  0.08511147    -0.80300
O52         O  0.47676418  0.08595515  0.11894418    -0.73800
Al53       Al  0.39320429  0.03424939  0.11900689     1.90100
O54         O  0.44731744  0.06251974  0.07649679    -0.72900
O55         O  0.42142503  0.13455158  0.11177736    -0.72800
O56         O  0.38347445  0.10519000  0.07269938    -0.78400
O57         O  0.37618248  0.12623671  0.14323005    -0.76600
O58         O  0.38624999  0.07491219  0.11466569    -1.12800
O59         O  0.33642824  0.07240345  0.15869031    -0.72000
C60         C  0.35867548  0.04906369  0.16672642     0.98800
C61         C  0.43066123  0.03645706  0.07204402     0.95200
Al62       Al  0.42810918  0.09549516  0.09662323     1.55600
O63         O  0.32994607  0.02407885  0.11566715    -0.76600
C64         C  0.40678309  0.14233713  0.13254437     0.99300
C65         C  0.48794825  0.05817532  0.12409272     0.94200
O66         O  0.45844827  0.03668593  0.12286838    -0.81900
O67         O  0.58167406  0.43952161  0.15028750    -0.81400
C68         C  0.65318020  0.36904141  0.07068986     0.98000
O69         O  0.66644264  0.36641630  0.09277068    -0.70500
O70         O  0.69347252  0.41890404  0.11328734    -0.74100
Al71       Al  0.64795415  0.38869874  0.12283363     1.49000
C72         C  0.69205181  0.44767301  0.11759807     0.93300
O73         O  0.59968089  0.46331655  0.08449357    -0.80300
O74         O  0.50906478  0.40034309  0.10485536    -0.73800
Al75       Al  0.59109084  0.44922614  0.11703977     1.90100
O76         O  0.55777970  0.42726164  0.06718295    -0.72900
O77         O  0.56430388  0.35200502  0.10231038    -0.72800
O78         O  0.61450659  0.38113031  0.06646296    -0.78400
O79         O  0.60862151  0.35502523  0.13432880    -0.76600
O80         O  0.60127202  0.40965811  0.10911441    -1.12800
O81         O  0.64062492  0.40831524  0.15529155    -0.72000
C82         C  0.61195454  0.42790561  0.16405523     0.98800
C83         C  0.57741962  0.45328837  0.06648461     0.95200
Al84       Al  0.56484125  0.39155828  0.08721783     1.55600
O85         O  0.65384401  0.46005827  0.12250250    -0.76600
C86         C  0.57847742  0.34059778  0.12216615     0.99300
C87         C  0.49618133  0.42753778  0.10991879     0.94200
O88         O  0.52547008  0.44864057  0.11315133    -0.81900
O89         O  0.95285633  0.95063991  0.11667276    -0.81400
C90         C  0.82624640  0.86741661  0.07626513     0.98000
O91         O  0.86923330  0.86268989  0.07660446    -0.70500
O92         O  0.90062072  0.91382009  0.05759068    -0.74100
Al93       Al  0.91721725  0.89110975  0.08571016     1.49000
C94         C  0.91216390  0.94166755  0.05480653     0.93300
O95         O  0.82978808  0.96428808  0.09598134    -0.80300
O96         O  0.86251767  0.91261337  0.15420197    -0.73800
Al97       Al  0.89105505  0.95519751  0.10628703     1.90100
O98         O  0.79621129  0.93207273  0.12176372    -0.72900
O99         O  0.87071698  0.85713975  0.12875633    -0.72800
O100        O  0.80774263  0.88213391  0.09389697    -0.78400
O101        O  0.93804175  0.86545681  0.11141207    -0.76600
O102        O  0.88238245  0.91440646  0.10538377    -1.12800
O103        O  0.97270806  0.91486861  0.09002101    -0.72000
C104        C  0.98342795  0.93647786  0.10449591     0.98800
C105        C  0.79506399  0.95637175  0.10861449     0.95200
Al106      Al  0.83785618  0.89700000  0.12327513     1.55600
O107        O  0.91140289  0.95986435  0.07283120    -0.76600
C108        C  0.91224604  0.84877200  0.12453615     0.99300
C109        C  0.86914573  0.94145555  0.15810076     0.94200
O110        O  0.87440238  0.95972219  0.14007768    -0.81900
O111        O  0.03397293  0.54056371  0.12105562    -0.81400
C112        C  0.15456932  0.62569264  0.07942645     0.98000
O113        O  0.11235113  0.63265013  0.08205453    -0.70500
O114        O  0.07654280  0.58432185  0.06293810    -0.74100
Al115      Al  0.06472132  0.60396986  0.09268001     1.49000
C116        C  0.06803147  0.55655885  0.05862326     0.93300
O117        O  0.15565180  0.53130388  0.09572077    -0.80300
O118        O  0.12683878  0.57720328  0.15762444    -0.73800
Al119      Al  0.09479001  0.53839391  0.10843800     1.90100
O120        O  0.19054787  0.56118475  0.12200193    -0.72900
O121        O  0.11689282  0.63524400  0.13431455    -0.72800
O122        O  0.17494974  0.61138632  0.09649763    -0.78400
O123        O  0.04771966  0.62723140  0.12023490    -0.76600
O124        O  0.10214340  0.57919664  0.10948768    -1.12800
O125        O  0.00962331  0.57982451  0.09905649    -0.72000
C126        C  0.00125622  0.55636690  0.11244348     0.98800
C127        C  0.19193614  0.53918549  0.10677698     0.95200
Al128      Al  0.14842043  0.59543312  0.12640041     1.55600
O129        O  0.07199070  0.53645529  0.07539132    -0.76600
C130        C  0.07487640  0.64357518  0.13237309     0.99300
C131        C  0.12151297  0.54782827  0.16006882     0.94200
O132        O  0.11413505  0.53154029  0.14132771    -0.81900
O133        O  0.94842253  0.03974626  0.36619343    -0.81400
C134        C  0.81208154  0.11503308  0.40944529     0.98000
O135        O  0.85471785  0.12116939  0.40954277    -0.70500
O136        O  0.88513080  0.06805247  0.42540346    -0.74100
Al137      Al  0.90470472  0.09422257  0.39981845     1.49000
C138        C  0.89630071  0.03991999  0.42601553     0.93300
O139        O  0.82413215  0.02067463  0.37963804    -0.80300
O140        O  0.85738302  0.08176627  0.32866440    -0.73800
Al141      Al  0.88536664  0.03295848  0.37300893     1.90100
O142        O  0.78947096  0.05645857  0.35791470    -0.72900
O143        O  0.86111828  0.13267091  0.35904966    -0.72800
O144        O  0.79586782  0.10197009  0.39061385    -0.78400
O145        O  0.92743992  0.12261059  0.37654246    -0.76600
O146        O  0.87355730  0.07301111  0.37740294    -1.12800
O147        O  0.96202398  0.07178709  0.39608111    -0.72000
C148        C  0.97600767  0.05136485  0.38121977     0.98800
C149        C  0.78942061  0.03008567  0.36812809     0.95200
Al150      Al  0.82949391  0.09201475  0.36042662     1.55600
O151        O  0.89866723  0.02409690  0.40665519    -0.76600
C152        C  0.90251269  0.14032708  0.36393309     0.99300
C153        C  0.86964124  0.05452718  0.32219167     0.94200
O154        O  0.87604570  0.03367065  0.33822196    -0.81900
O155        O  0.02018127  0.44484949  0.35861182    -0.81400
C156        C  0.14496727  0.37543143  0.41623854     0.98000
O157        O  0.10203956  0.37031656  0.41571139    -0.70500
O158        O  0.06605560  0.42406479  0.42441657    -0.74100
Al159      Al  0.05440648  0.39490695  0.39985010     1.49000
C160        C  0.05140064  0.45128128  0.42253702     0.93300
O161        O  0.13725876  0.46774650  0.38271690    -0.80300
O162        O  0.12059793  0.40479071  0.33121388    -0.73800
Al163      Al  0.07922236  0.45429778  0.37113044     1.90100
O164        O  0.17883474  0.43119739  0.36531997    -0.72900
O165        O  0.10754158  0.35457311  0.36222595    -0.72800
O166        O  0.16444368  0.38592747  0.39707710    -0.78400
O167        O  0.03870834  0.36343750  0.37782278    -0.76600
O168        O  0.09074551  0.41461169  0.37833250    -1.12800
O169        O  0.99834202  0.41559771  0.38945871    -0.72000
C170        C  0.98832927  0.43326671  0.37165337     0.98800
C171        C  0.17555689  0.45813219  0.37454110     0.95200
Al172      Al  0.13889109  0.39526516  0.36504598     1.55600
O173        O  0.05234336  0.46518563  0.40219030    -0.76600
C174        C  0.06588837  0.34621016  0.36610214     0.99300
C175        C  0.11269895  0.43225765  0.32350023     0.94200
O176        O  0.10177305  0.45326475  0.33838588    -0.81900
O177        O  0.52189651  0.04553815  0.62577322    -0.81400
C178        C  0.65372072  0.11995868  0.57831918     0.98000
O179        O  0.61112326  0.12612484  0.57847891    -0.70500
O180        O  0.57980727  0.07275243  0.56497787    -0.74100
Al181      Al  0.56236429  0.09948033  0.59022177     1.49000
C182        C  0.57205417  0.04413382  0.56470364     0.85300
O183        O  0.64523153  0.02626272  0.60978773    -0.80300
O184        O  0.61576339  0.08709040  0.66092813    -0.73800
Al185      Al  0.58437011  0.03850610  0.61753481     1.90100
O186        O  0.68139484  0.06277927  0.62971365    -0.72900
O187        O  0.60697114  0.13829329  0.63078273    -0.72800
O188        O  0.67103974  0.10842233  0.59757136    -0.78400
O189        O  0.54082023  0.12862014  0.61315327    -0.76600
O190        O  0.59536608  0.07867169  0.61242350    -1.12800
O191        O  0.50621119  0.07739325  0.59593543    -0.72000
C192        C  0.49281404  0.05811406  0.61183110     0.98800
C193        C  0.68099692  0.03621580  0.61994511     0.95200
Al194      Al  0.64013553  0.09800800  0.62840598     1.55600
O195        O  0.56904920  0.02896953  0.58447191    -0.76600
C196        C  0.56524304  0.14578404  0.62628522     0.99300
C197        C  0.60483172  0.05962864  0.66753246     0.94200
O198        O  0.59686742  0.03920515  0.65164223    -0.81900
O199        O  0.43834937  0.45061618  0.62461393    -0.81400
C200        C  0.31088779  0.37030049  0.58255655     0.98000
O201        O  0.35370212  0.36376704  0.58309566    -0.70500
O202        O  0.39248663  0.41220637  0.56504716    -0.74100
Al203      Al  0.40395354  0.39019890  0.59395362     1.49000
C204        C  0.40416225  0.43973959  0.56171307     0.93300
O205        O  0.31850457  0.46379701  0.60034049    -0.80300
O206        O  0.34766137  0.41492044  0.66130946    -0.73800
Al207      Al  0.37842882  0.45515562  0.61241049     1.90100
O208        O  0.28275110  0.43431963  0.62740049    -0.72900
O209        O  0.35280446  0.35782053  0.63648206    -0.72800
O210        O  0.29317941  0.38409999  0.60080124    -0.78400
O211        O  0.42105112  0.36446004  0.62013894    -0.76600
O212        O  0.36882638  0.41457037  0.61241961    -1.12800
O213        O  0.46050532  0.41285337  0.60034346    -0.72000
C214        C  0.47000796  0.43537439  0.61435089     0.98800
C215        C  0.28275640  0.45703193  0.61257920     0.95200
Al216      Al  0.32288454  0.39861004  0.63022027     1.55600
O217        O  0.40202831  0.45867254  0.57927865    -0.76600
C218        C  0.39396517  0.34840621  0.63282446     0.99300
C219        C  0.35431689  0.44403056  0.66430321     0.94200
O220        O  0.35926697  0.46111519  0.64554866    -0.81900
O221        O  0.55114929  0.95612638  0.87259194    -0.81400
C222        C  0.66993109  0.86646239  0.91018267     0.98000
O223        O  0.62696429  0.86180912  0.90906354    -0.70500
O224        O  0.60106307  0.91299942  0.92909668    -0.74100
Al225      Al  0.58135471  0.89272308  0.90087708     1.49000
C226        C  0.59805815  0.94162617  0.93267033     0.93300
O227        O  0.67704226  0.96125474  0.88923624    -0.80300
O228        O  0.63455627  0.91227605  0.83240254    -0.73800
Al229      Al  0.61432590  0.95595651  0.88085076     1.90100
O230        O  0.70557317  0.92808874  0.86312473    -0.72900
O231        O  0.62341765  0.85735826  0.85780787    -0.72800
O232        O  0.68969563  0.87987261  0.89221321    -0.78400
O233        O  0.55739451  0.86952478  0.87477183    -0.76600
O234        O  0.61798862  0.91488214  0.88121787    -1.12800
O235        O  0.52800157  0.91927832  0.89766543    -0.72000
C236        C  0.51945761  0.94264142  0.88437126     0.98800
C237        C  0.71061216  0.95154270  0.87660626     0.95200
Al238      Al  0.65995457  0.89552924  0.86280415     1.55600
O239        O  0.59976416  0.96049698  0.91495422    -0.76600
C240        C  0.58080338  0.85163858  0.86137758     0.99300
C241        C  0.62827886  0.94124797  0.82863476     0.94200
O242        O  0.62700354  0.95983766  0.84655097    -0.81900
O243        O  0.46052054  0.55333196  0.85853864    -0.81400
C244        C  0.33312909  0.62203210  0.91687331     0.98000
O245        O  0.37626479  0.62634947  0.91596494    -0.70500
O246        O  0.41677765  0.57435445  0.92410657    -0.74100
Al247      Al  0.42499579  0.60352542  0.89917379     1.49000
C248        C  0.42980492  0.54681931  0.92248116     0.93300
O249        O  0.34399294  0.52898773  0.88374284    -0.80300
O250        O  0.35663474  0.59247810  0.83214423    -0.73800
Al251      Al  0.40159010  0.54345451  0.87157324     1.90100
O252        O  0.30059291  0.56515083  0.86717406    -0.72900
O253        O  0.36807181  0.64275870  0.86220370    -0.72800
O254        O  0.31365504  0.61097470  0.89815452    -0.78400
O255        O  0.43767049  0.63577761  0.87675396    -0.76600
O256        O  0.38866048  0.58302302  0.87862919    -1.12800
O257        O  0.48218564  0.58412910  0.88798173    -0.72000
C258        C  0.49238070  0.56560766  0.87076934     0.98800
C259        C  0.30518247  0.53830008  0.87638710     0.95200
Al260      Al  0.33903782  0.60158948  0.86598863     1.55600
O261        O  0.42836025  0.53264453  0.90242119    -0.76600
C262        C  0.40900031  0.65242575  0.86560391     0.99300
C263        C  0.36659646  0.56546324  0.82437588     0.94200
O264        O  0.37935085  0.54464786  0.83905539    -0.81900
O265        O  0.08096107  0.95060755  0.64978264    -0.81400
C266        C  0.14126479  0.86638224  0.57660468     0.98000
O267        O  0.15601665  0.86632299  0.59852062    -0.70500
O268        O  0.18703055  0.92024682  0.61344169    -0.74100
Al269      Al  0.14107799  0.89306144  0.62656320     1.49000
C270        C  0.18704430  0.94943239  0.61416474     0.93300
O271        O  0.09303236  0.96181400  0.58159228    -0.80300
O272        O  0.00248752  0.90453784  0.61145389    -0.73800
Al273      Al  0.08718258  0.95364807  0.61554877     1.90100
O274        O  0.04620698  0.92496198  0.56992413    -0.72900
O275        O  0.05544237  0.85464868  0.61083600    -0.72800
O276        O  0.10300531  0.87870670  0.57175270    -0.78400
O277        O  0.10142460  0.86212949  0.64186023    -0.76600
O278        O  0.09461877  0.91283389  0.61180446    -1.12800
O279        O  0.13700070  0.91769507  0.65689639    -0.72000
C280        C  0.11109496  0.93988496  0.66404992     0.98800
C281        C  0.06629564  0.95038197  0.56606350     0.95200
Al282      Al  0.05546098  0.89226836  0.59271704     1.55600
O283        O  0.15008524  0.96389969  0.61799223    -0.76600
C284        C  0.07087604  0.84620596  0.63126401     0.99300
C285        C  0.99121143  0.93255869  0.61455649     0.94200
O286        O  0.02192042  0.95322701  0.61391626    -0.81900
O287        O  0.88920244  0.54781448  0.64492374    -0.81400
C288        C  0.81929972  0.62507714  0.56929858     0.98000
O289        O  0.80553564  0.62624266  0.59154173    -0.70500
O290        O  0.77731258  0.57428520  0.61232210    -0.74100
Al291      Al  0.82470465  0.60290924  0.62110422     1.49000
C292        C  0.77725405  0.54526900  0.61515582     0.93300
O293        O  0.86499622  0.53107785  0.57875685    -0.80300
O294        O  0.96174975  0.58862176  0.60127129    -0.73800
Al295      Al  0.87697480  0.54146543  0.61163799     1.90100
O296        O  0.91154162  0.56591399  0.56274466    -0.72900
O297        O  0.91051774  0.63907666  0.60042513    -0.72800
O298        O  0.85829356  0.61371307  0.56444204    -0.78400
O299        O  0.86530560  0.63548817  0.63242922    -0.76600
O300        O  0.86949466  0.58189051  0.60581863    -1.12800
O301        O  0.83441287  0.58170690  0.65291712    -0.72000
C302        C  0.86236737  0.56065502  0.66014837     0.98800
C303        C  0.88855176  0.54123232  0.56097478     0.95200
Al304      Al  0.90706667  0.60045525  0.58421236     1.55600
O305        O  0.81473165  0.53160314  0.61864002    -0.76600
C306        C  0.89634076  0.64977733  0.62053501     0.99300
C307        C  0.97279383  0.56062890  0.60460279     0.94200
O308        O  0.94165047  0.54036338  0.60605480    -0.81900
O309        O  0.09901534  0.04902306  0.83794725    -0.81400
C310        C  0.17185491  0.11672228  0.91624639     0.98000
O311        O  0.18041708  0.12337625  0.89381699    -0.70500
O312        O  0.20939358  0.07416284  0.87025484    -0.74100
Al313      Al  0.16082342  0.10199846  0.86351784     1.49000
C314        C  0.21031347  0.04518816  0.86773235     0.93300
O315        O  0.11999633  0.02420552  0.90284178    -0.80300
O316        O  0.02745758  0.08773447  0.88545605    -0.73800
Al317      Al  0.11018244  0.03926575  0.87069010     1.90100
O318        O  0.07565995  0.05827740  0.92104043    -0.72900
O319        O  0.08239558  0.13641656  0.89015618    -0.72800
O320        O  0.13518186  0.10293999  0.92211479    -0.78400
O321        O  0.11617889  0.13356817  0.85444053    -0.76600
O322        O  0.11836869  0.07873349  0.87882034    -1.12800
O323        O  0.15314910  0.08308381  0.83079857    -0.72000
C324        C  0.12678189  0.06164864  0.82325283     0.98800
C325        C  0.09533694  0.03229129  0.92074123     0.95200
Al326      Al  0.08347703  0.09514339  0.90259684     1.55600
O327        O  0.17368922  0.03006167  0.86474480    -0.76600
C328        C  0.08902038  0.14746661  0.86901622     0.99300
C329        C  0.01533756  0.06098869  0.87861407     0.94200
O330        O  0.04471602  0.03977877  0.87501671    -0.81900
O331        O  0.91193064  0.44495611  0.83082321    -0.81400
C332        C  0.84085482  0.38374274  0.91433914     0.98000
O333        O  0.83106392  0.37627822  0.89239944    -0.70500
O334        O  0.80183101  0.42808448  0.87090893    -0.74100
Al335      Al  0.84695453  0.39812166  0.86139656     1.49000
C336        C  0.80245705  0.45669380  0.86573523     0.93300
O337        O  0.89851013  0.47673482  0.89433601    -0.80300
O338        O  0.98330350  0.40813809  0.87884941    -0.73800
Al339      Al  0.90416321  0.45845601  0.86313217     1.90100
O340        O  0.93871419  0.44155517  0.91390810    -0.72900
O341        O  0.92444382  0.36245230  0.88597871    -0.72800
O342        O  0.87674071  0.39913603  0.91841794    -0.78400
O343        O  0.88909593  0.36540542  0.85073306    -0.76600
O344        O  0.89289212  0.42033922  0.87393831    -1.12800
O345        O  0.84967452  0.41705384  0.82811089    -0.72000
C346        C  0.87825952  0.43598982  0.81849250     0.98800
C347        C  0.92166483  0.46832387  0.91252642     0.95200
Al348      Al  0.92764797  0.40404437  0.89729984     1.55600
O349        O  0.83973574  0.46950622  0.85875294    -0.76600
C350        C  0.91654633  0.35131443  0.86507100     0.99300
C351        C  0.99829394  0.43373637  0.87087936     0.94200
O352        O  0.97038759  0.45543647  0.86572034    -0.81900
C353        C  0.05172884  0.22653436  0.84172026    -0.11400
C354        C  0.01229019  0.23290348  0.85605348     0.11200
C355        C  0.99652718  0.21022980  0.87294745    -0.03200
C356        C  0.02187033  0.18252436  0.87562631    -0.06000
C357        C  0.06291054  0.17653509  0.86232275    -0.16700
C358        C  0.07768273  0.19883507  0.84465943     0.02200
C359        C  0.99086616  0.26461300  0.85513026     0.12100
C360        C  0.95346038  0.21554811  0.88851068     0.62700
H361        H  0.00982205  0.16529910  0.88862745     0.12200
C362        C  0.12134007  0.19419145  0.82961159     0.54900
H363        H  0.06293963  0.24407577  0.82877076     0.07900
C364        C  0.00957713  0.28940338  0.86869681    -0.05900
C365        C  0.98501650  0.31751927  0.87000011    -0.06600
C366        C  0.94197602  0.32196883  0.85860546    -0.16200
C367        C  0.92445279  0.29772192  0.84383519    -0.01800
C368        C  0.94945782  0.26940529  0.84229737    -0.09300
C369        C  0.05483630  0.28591610  0.88238681     0.65000
H370        H  0.99909535  0.33632661  0.88065854     0.10400
C371        C  0.87898515  0.30115320  0.83058375     0.63300
H372        H  0.93604093  0.25028507  0.83173332     0.07800
F373        F  0.15846595  0.18969778  0.84500133    -0.19700
F374        F  0.13092378  0.21957944  0.81482482    -0.15900
F375        F  0.11641258  0.16867391  0.81463538    -0.19400
F376        F  0.91547809  0.21838188  0.87352004    -0.22800
F377        F  0.95800088  0.24231936  0.90213076    -0.24300
F378        F  0.94535495  0.19126262  0.90465015    -0.18300
F379        F  0.84401999  0.30717236  0.84731615    -0.20700
F380        F  0.86762005  0.27453676  0.81790701    -0.21900
F381        F  0.88187390  0.32528830  0.81387523    -0.19100
F382        F  0.06579225  0.31236198  0.89537964    -0.19200
F383        F  0.09033331  0.28028088  0.86593062    -0.23000
F384        F  0.05201392  0.26153750  0.89887104    -0.24600
C385        C  0.82399898  0.52822353  0.72300472    -0.11400
C386        C  0.86303159  0.51070970  0.72950914     0.11200
C387        C  0.90310350  0.51262048  0.71457028    -0.03200
C388        C  0.90220955  0.53126593  0.69326510    -0.06000
C389        C  0.86258749  0.54793848  0.68596214    -0.16700
C390        C  0.82303326  0.54704587  0.70162556     0.02200
C391        C  0.86200266  0.49158897  0.75261268     0.12100
C392        C  0.94657034  0.49457456  0.72091154     0.62700
H393        H  0.93251338  0.53205868  0.68155312     0.12200
C394        C  0.77948462  0.56507798  0.69570599     0.54900
H395        H  0.79386386  0.52666502  0.73478856     0.07900
C396        C  0.86933698  0.50523165  0.77578358    -0.05900
C397        C  0.87286031  0.48587369  0.79649338    -0.06600
C398        C  0.86913706  0.45334164  0.79517206    -0.16200
C399        C  0.85946115  0.43969831  0.77226605    -0.01800
C400        C  0.85591550  0.45915091  0.75127139    -0.09300
C401        C  0.87398316  0.54015063  0.77867336     0.65000
H402        H  0.87900807  0.49623964  0.81420173     0.10400
C403        C  0.85481600  0.40488076  0.76996748     0.63300
H404        H  0.84955256  0.44909523  0.73346032     0.07800
F405        F  0.74598506  0.56161876  0.71373703    -0.19700
F406        F  0.76128231  0.55471182  0.67388759    -0.15900
F407        F  0.78962296  0.59633594  0.69381492    -0.19400
F408        F  0.93769754  0.46311460  0.72024497    -0.22800
F409        F  0.96119721  0.50240861  0.74411817    -0.24300
F410        F  0.98231575  0.50067634  0.70461958    -0.18300
F411        F  0.81792451  0.39472645  0.78405000    -0.20700
F412        F  0.89474433  0.39061871  0.77802176    -0.21900
F413        F  0.84742073  0.39603147  0.74596852    -0.19100
F414        F  0.88361311  0.54837418  0.80259068    -0.19200
F415        F  0.83319311  0.55450944  0.77215485    -0.23000
F416        F  0.90931583  0.55116876  0.76388813    -0.24600
C417        C  0.16375238  0.97787873  0.72135303    -0.11400
C418        C  0.12652892  0.99589908  0.72980819     0.11200
C419        C  0.08405945  0.99441044  0.71727442    -0.03200
C420        C  0.08015016  0.97455738  0.69689224    -0.06000
C421        C  0.11721079  0.95610979  0.68828504    -0.16700
C422        C  0.16001001  0.95787296  0.70092529     0.02200
C423        C  0.13096976  0.01302910  0.75357308     0.12100
C424        C  0.04294076  0.01381010  0.72550099     0.62700
H425        H  0.04771087  0.97364748  0.68724559     0.12200
C426        C  0.20201708  0.93929560  0.69292411     0.54900
H427        H  0.19583403  0.97930449  0.73129950     0.07900
C428        C  0.12426399  0.99736460  0.77610239    -0.05900
C429        C  0.12369224  0.01458502  0.79786257    -0.06600
C430        C  0.13081857  0.04693473  0.79837724    -0.16200
C431        C  0.14103277  0.06240748  0.77598381    -0.01800
C432        C  0.14021087  0.04517058  0.75379500    -0.09300
C433        C  0.11816919  0.96234120  0.77724494     0.65000
H434        H  0.11816229  0.00244781  0.81503233     0.10400
C435        C  0.15182011  0.09675053  0.77546919     0.63300
H436        H  0.14637043  0.05667683  0.73639958     0.07800
F437        F  0.23963136  0.94460783  0.70778886    -0.19700
F438        F  0.21449617  0.94741863  0.66926348    -0.15900
F439        F  0.19214300  0.90795903  0.69404949    -0.19400
F440        F  0.05403279  0.04493869  0.72413068    -0.22800
F441        F  0.03102953  0.00645456  0.74940974    -0.24300
F442        F  0.00468094  0.00890211  0.71101805    -0.18300
F443        F  0.19169626  0.10227942  0.78846775    -0.20700
F444        F  0.11568697  0.11314887  0.78590702    -0.21900
F445        F  0.15850802  0.10761725  0.75179882    -0.19100
F446        F  0.10914970  0.95198750  0.80084397    -0.19200
F447        F  0.15813315  0.94799895  0.76913550    -0.23000
F448        F  0.08184324  0.95332036  0.76267974    -0.24600
C449        C  0.04689394  0.76041239  0.63916953    -0.11400
C450        C  0.00002121  0.76118328  0.64601306     0.11200
C451        C  0.98075483  0.78968549  0.65406106    -0.03200
C452        C  0.00700903  0.81716745  0.65147310    -0.06000
C453        C  0.05205445  0.81681405  0.64173515    -0.16700
C454        C  0.07311105  0.78787008  0.63659051     0.02200
C455        C  0.97048630  0.73351994  0.64021215     0.12100
C456        C  0.93210833  0.79109096  0.66445325     0.62700
H457        H  0.99147618  0.83944484  0.65557611     0.12200
C458        C  0.12206904  0.78637710  0.62669329     0.54900
H459        H  0.06159922  0.73835968  0.63368521     0.07900
C460        C  0.95675815  0.72767947  0.61577881    -0.05900
C461        C  0.93090444  0.70089715  0.61071054    -0.06600
C462        C  0.91737822  0.67967755  0.62905643    -0.16200
C463        C  0.92860604  0.68642148  0.65378348    -0.01800
C464        C  0.95573269  0.71304513  0.65887916    -0.09300
C465        C  0.96989529  0.74949715  0.59487682     0.65000
H466        H  0.92171067  0.69594369  0.59193850     0.10400
C467        C  0.91283556  0.66542222  0.67457354     0.63300
H468        H  0.96605837  0.71792140  0.67747910     0.07800
F469        F  0.12423553  0.80046168  0.60390762    -0.19700
F470        F  0.13741641  0.75610653  0.62428697    -0.15900
F471        F  0.15131791  0.80158614  0.64249922    -0.19400
F472        F  0.92920732  0.77250458  0.68511828    -0.22800
F473        F  0.90093018  0.78076654  0.64729673    -0.24300
F474        F  0.91977122  0.82094031  0.67111769    -0.18300
F475        F  0.92943902  0.63567700  0.67093272    -0.20700
F476        F  0.86513712  0.66482040  0.67549708    -0.21900
F477        F  0.92835191  0.67563684  0.69705281    -0.19100
F478        F  0.94851446  0.74154056  0.57321467    -0.19200
F479        F  0.01701106  0.74846600  0.59087604    -0.23000
F480        F  0.95692298  0.77952980  0.60052024    -0.24600
C481        C  0.62437229  0.55623279  0.87348022    -0.11400
C482        C  0.62976054  0.52618164  0.86399842     0.11200
C483        C  0.59069746  0.51061465  0.85471857    -0.03200
C484        C  0.54721021  0.52512943  0.85632022    -0.06000
C485        C  0.54110337  0.55475180  0.86670714    -0.16700
C486        C  0.58084779  0.57115584  0.87453649     0.02200
C487        C  0.67599776  0.51068448  0.86518283     0.12100
C488        C  0.59479482  0.47861193  0.84326501     0.62700
H489        H  0.51712836  0.51267533  0.85015494     0.12200
C490        C  0.57796630  0.60435756  0.88356206     0.54900
H491        H  0.65459541  0.56775656  0.88054275     0.07900
C492        C  0.71138910  0.51622274  0.84766068    -0.05900
C493        C  0.75222523  0.49834541  0.84871703    -0.06600
C494        C  0.75894642  0.47538042  0.86676739    -0.16200
C495        C  0.72459214  0.47131664  0.88526152    -0.01800
C496        C  0.68378862  0.48919285  0.88411397    -0.09300
C497        C  0.70601289  0.54090581  0.82795718     0.65000
H498        H  0.77906379  0.50181498  0.83505582     0.10400
C499        C  0.73108298  0.44879746  0.90645938     0.63300
H500        H  0.65677561  0.48592652  0.89771704     0.07800
F501        F  0.62117276  0.61786154  0.88479766    -0.19700
F502        F  0.55837138  0.60511119  0.90672594    -0.15900
F503        F  0.55164950  0.62198001  0.86765303    -0.19400
F504        F  0.61063697  0.45742964  0.86031466    -0.22800
F505        F  0.62524517  0.47961979  0.82365946    -0.24300
F506        F  0.55282624  0.46804731  0.83475012    -0.18300
F507        F  0.69735102  0.45242739  0.92434566    -0.20700
F508        F  0.77340597  0.45380962  0.91724980    -0.21900
F509        F  0.72889623  0.41862155  0.89809648    -0.19100
F510        F  0.74400305  0.54209092  0.81243090    -0.19200
F511        F  0.70102447  0.56967128  0.83874620    -0.23000
F512        F  0.66755130  0.53485758  0.81398747    -0.24600
C513        C  0.22291601  0.47102175  0.86559143    -0.11400
C514        C  0.18143338  0.48376016  0.87422497     0.11200
C515        C  0.18172112  0.51268388  0.88642047    -0.03200
C516        C  0.22319080  0.52955035  0.88721875    -0.06000
C517        C  0.26450341  0.51752994  0.87754840    -0.16700
C518        C  0.26488556  0.48725219  0.86730110     0.02200
C519        C  0.13792715  0.46632175  0.87051403     0.12100
C520        C  0.13849021  0.52532056  0.89882082     0.62700
H521        H  0.22373320  0.55239962  0.89543328     0.12200
C522        C  0.30878550  0.47253638  0.85729712     0.54900
H523        H  0.22185383  0.44836770  0.85707168     0.07900
C524        C  0.10958439  0.47156685  0.84993633    -0.05900
C525        C  0.06487598  0.45881047  0.84993509    -0.06600
C526        C  0.04878492  0.43997680  0.86929587    -0.16200
C527        C  0.07973733  0.43175602  0.88843570    -0.01800
C528        C  0.12382936  0.44537152  0.88867630    -0.09300
C529        C  0.12662228  0.49074909  0.82828891     0.65000
H530        H  0.04149073  0.46430147  0.83512664     0.10400
C531        C  0.06598786  0.41029046  0.90937307     0.63300
H532        H  0.14710042  0.44098700  0.90375452     0.07800
F533        F  0.32711881  0.49094480  0.83888279    -0.19700
F534        F  0.30083498  0.44343562  0.84760513    -0.15900
F535        F  0.34058138  0.46914697  0.87587159    -0.19400
F536        F  0.12372431  0.50473975  0.91672453    -0.22800
F537        F  0.10375760  0.52927667  0.88189969    -0.24300
F538        F  0.14637351  0.55362552  0.90988207    -0.18300
F539        F  0.10175798  0.40553827  0.92563377    -0.20700
F540        F  0.05361784  0.38167462  0.90023274    -0.21900
F541        F  0.02950047  0.42299462  0.92232924    -0.19100
F542        F  0.09446512  0.49197789  0.80969828    -0.19200
F543        F  0.16661016  0.47769000  0.81888626    -0.23000
F544        F  0.13583927  0.52074343  0.83556218    -0.24600
C545        C  0.83805797  0.97487269  0.87269378    -0.11400
C546        C  0.83489907  0.00679546  0.87726038     0.11200
C547        C  0.79098811  0.02061609  0.88068173    -0.03200
C548        C  0.75187288  0.00144880  0.88081969    -0.06000
C549        C  0.75471413  0.96930491  0.87655167    -0.16700
C550        C  0.79872753  0.95577971  0.87190441     0.02200
C551        C  0.87871492  0.02443438  0.87813757     0.12100
C552        C  0.78290593  0.05522414  0.88380201     0.62700
H553        H  0.71827917  0.01206885  0.88370160     0.12200
C554        C  0.80480379  0.92150084  0.86636935     0.54900
H555        H  0.87208050  0.96502882  0.86966607     0.07900
C556        C  0.90143699  0.03016799  0.90053359    -0.05900
C557        C  0.94484351  0.04462211  0.89984568    -0.06600
C558        C  0.96631931  0.05253258  0.87759066    -0.16200
C559        C  0.94360358  0.04702684  0.85522306    -0.01800
C560        C  0.89958269  0.03329964  0.85587866    -0.09300
C561        C  0.88058102  0.02013977  0.92493143     0.65000
H562        H  0.96353983  0.04843071  0.91666688     0.10400
C563        C  0.96636660  0.05505288  0.83089693     0.63300
H564        H  0.88174114  0.02834957  0.83900178     0.07800
F565        F  0.78429167  0.90388878  0.88462219    -0.19700
F566        F  0.85086577  0.91304255  0.86503891    -0.15900
F567        F  0.78506705  0.91467117  0.84405761    -0.19400
F568        F  0.75424332  0.06567933  0.86537272    -0.22800
F569        F  0.82291089  0.07255945  0.88283056    -0.24300
F570        F  0.76148114  0.06050380  0.90614375    -0.18300
F571        F  0.93718459  0.04994074  0.81137944    -0.20700
F572        F  0.00534083  0.03699328  0.82754696    -0.21900
F573        F  0.97879666  0.08600721  0.83069082    -0.19100
F574        F  0.90967870  0.02630139  0.94429864    -0.19200
F575        F  0.87197430  0.98861710  0.92477527    -0.23000
F576        F  0.83965248  0.03579899  0.92900566    -0.24600
C577        C  0.41470167  0.99447975  0.89268204    -0.11400
C578        C  0.38239450  0.97934073  0.87811513     0.11200
C579        C  0.39487766  0.95181184  0.86561329    -0.03200
C580        C  0.43955106  0.93960836  0.86897323    -0.06000
C581        C  0.47213777  0.95513945  0.88322397    -0.16700
C582        C  0.45976241  0.98307052  0.89525416     0.02200
C583        C  0.33697336  0.99455734  0.87503373     0.12100
C584        C  0.36224927  0.93663057  0.84767802     0.62700
H585        H  0.45010957  0.91860204  0.85962139     0.12200
C586        C  0.49373434  0.00060961  0.91097677     0.54900
H587        H  0.40435635  0.01578054  0.90168476     0.07900
C588        C  0.29955866  0.98898196  0.89128195    -0.05900
C589        C  0.25802085  0.00511394  0.88746191    -0.06600
C590        C  0.25441085  0.02826935  0.86942743    -0.16200
C591        C  0.29265012  0.03498845  0.85403102    -0.01800
C592        C  0.33316956  0.01737908  0.85677550    -0.09300
C593        C  0.30435732  0.96757202  0.91332461     0.65000
H594        H  0.22852878  0.00086135  0.89935139     0.10400
C595        C  0.29066529  0.06053380  0.83484695     0.63300
H596        H  0.36294226  0.02191249  0.84515466     0.07800
F597        F  0.47423503  0.02689946  0.92127514    -0.19700
F598        F  0.53122759  0.00984023  0.89696913    -0.15900
F599        F  0.50835745  0.98164324  0.92979830    -0.19400
F600        F  0.35477297  0.95652784  0.82817546    -0.22800
F601        F  0.32044305  0.93011774  0.85885843    -0.24300
F602        F  0.38011077  0.90913564  0.83860183    -0.18300
F603        F  0.33001240  0.06109333  0.82029494    -0.20700
F604        F  0.28670878  0.08901476  0.84622783    -0.21900
F605        F  0.25312459  0.05607375  0.81979951    -0.19100
F606        F  0.26332093  0.96489668  0.92633021    -0.19200
F607        F  0.33729850  0.97926707  0.92893309    -0.23000
F608        F  0.31765248  0.93823877  0.90602310    -0.24600
C609        C  0.54953114  0.76713937  0.84650410    -0.11400
C610        C  0.50117946  0.76938170  0.84490972     0.11200
C611        C  0.48077819  0.79927454  0.84450015    -0.03200
C612        C  0.50880470  0.82553676  0.84807705    -0.06000
C613        C  0.55686634  0.82335122  0.85152487    -0.16700
C614        C  0.57794818  0.79363292  0.84934783     0.02200
C615        C  0.47268986  0.74042640  0.84791700     0.12100
C616        C  0.42897830  0.80378268  0.84274489     0.62700
H617        H  0.49255303  0.84809309  0.84947824     0.12200
C618        C  0.62979200  0.78949402  0.85111569     0.54900
H619        H  0.56469337  0.74421314  0.84690706     0.07900
C620        C  0.46794592  0.71745654  0.82950042    -0.05900
C621        C  0.44386934  0.68962458  0.83515066    -0.06600
C622        C  0.42416979  0.68435353  0.85843472    -0.16200
C623        C  0.42696461  0.70812326  0.87624471    -0.01800
C624        C  0.45112142  0.73560244  0.87068644    -0.09300
C625        C  0.48838132  0.72231540  0.80411488     0.65000
H626        H  0.44202727  0.67118051  0.82175177     0.10400
C627        C  0.40722009  0.70357576  0.90175835     0.63300
H628        H  0.45524625  0.75316542  0.88464804     0.07800
F629        F  0.65131824  0.80643261  0.83275397    -0.19700
F630        F  0.64288273  0.75876966  0.84849974    -0.15900
F631        F  0.64491205  0.79955764  0.87364389    -0.19400
F632        F  0.40928351  0.80083153  0.86578860    -0.22800
F633        F  0.40970825  0.78215891  0.82726413    -0.24300
F634        F  0.41844996  0.83293523  0.83359452    -0.18300
F635        F  0.43335060  0.68165253  0.91387678    -0.20700
F636        F  0.36194986  0.69368675  0.90042302    -0.21900
F637        F  0.40786600  0.73069785  0.91524290    -0.19100
F638        F  0.47617876  0.69875374  0.78829440    -0.19200
F639        F  0.53594729  0.72312474  0.80536027    -0.23000
F640        F  0.47261850  0.75003172  0.79442560    -0.24600
C641        C  0.68774966  0.47947411  0.61579709    -0.11400
C642        C  0.64677267  0.49634350  0.61386503     0.11200
C643        C  0.64821565  0.52905926  0.61263439    -0.03200
C644        C  0.69137488  0.54389771  0.61332567    -0.06000
C645        C  0.73311745  0.52717712  0.61474530    -0.16700
C646        C  0.73115602  0.49400379  0.61594063     0.02200
C647        C  0.60280111  0.47880110  0.61397068     0.12100
C648        C  0.60430887  0.54829823  0.61138381     0.62700
H649        H  0.69247844  0.56892610  0.61338568     0.12200
C650        C  0.77381915  0.47337965  0.61733419     0.54900
H651        H  0.68514930  0.45447596  0.61713188     0.07900
C652        C  0.58587015  0.46422046  0.59267983    -0.05900
C653        C  0.54370012  0.44828891  0.59419572    -0.06600
C654        C  0.51789644  0.44696168  0.61607328    -0.16200
C655        C  0.53590151  0.46052688  0.63765340    -0.01800
C656        C  0.57853663  0.47599476  0.63618543    -0.09300
C657        C  0.61141803  0.46632856  0.56829359     0.65000
H658        H  0.52929817  0.43818082  0.57786690     0.10400
C659        C  0.51063944  0.45881442  0.66214779     0.63300
H660        H  0.59284444  0.48678636  0.65228939     0.07800
F661        F  0.76278413  0.44214266  0.61751184    -0.19700
F662        F  0.79763661  0.47934726  0.63865823    -0.15900
F663        F  0.80193830  0.47859755  0.59713984    -0.19400
F664        F  0.58097254  0.54633605  0.63352067    -0.22800
F665        F  0.57604957  0.53758845  0.59299511    -0.24300
F666        F  0.61359007  0.57923203  0.60658656    -0.18300
F667        F  0.49631442  0.42874179  0.66666168    -0.20700
F668        F  0.47275987  0.47834817  0.66200163    -0.21900
F669        F  0.53866954  0.46768579  0.68129739    -0.19100
F670        F  0.58825278  0.45103607  0.54984992    -0.19200
F671        F  0.65466602  0.45307866  0.57032404    -0.23000
F672        F  0.61617334  0.49703561  0.56138537    -0.24600
C673        C  0.10415276  0.55275923  0.59707596    -0.11400
C674        C  0.11030870  0.52228107  0.60546099     0.11200
C675        C  0.07224131  0.50529619  0.61455880    -0.03200
C676        C  0.02887371  0.51965352  0.61508761    -0.06000
C677        C  0.02170450  0.54992178  0.60596787    -0.16700
C678        C  0.06015385  0.56680211  0.59653232     0.02200
C679        C  0.15730467  0.50881348  0.60563166     0.12100
C680        C  0.07730223  0.47199639  0.62356058     0.62700
H681        H  0.99983550  0.50684371  0.62245591     0.12200
C682        C  0.05519677  0.59881056  0.58512185     0.54900
H683        H  0.13422252  0.56524606  0.59057728     0.07900
C684        C  0.17735343  0.49454761  0.58477483    -0.05900
C685        C  0.21912478  0.47819775  0.58756841    -0.06600
C686        C  0.24101458  0.47637511  0.61035699    -0.16200
C687        C  0.22286711  0.49305677  0.63059834    -0.01800
C688        C  0.18091134  0.50888436  0.62786709    -0.09300
C689        C  0.15454904  0.49653320  0.55987271     0.65000
H690        H  0.23448360  0.46614198  0.57216367     0.10400
C691        C  0.24849535  0.49521552  0.65465706     0.63300
H692        H  0.16543316  0.52088041  0.64327234     0.07800
F693        F  0.02480976  0.59758612  0.56574052    -0.19700
F694        F  0.09682641  0.60991264  0.57611784    -0.15900
F695        F  0.03915473  0.61956982  0.60247581    -0.19400
F696        F  0.10398808  0.47121796  0.64441564    -0.22800
F697        F  0.09809033  0.45402952  0.60566266    -0.24300
F698        F  0.03504898  0.45873405  0.62920548    -0.18300
F699        F  0.29205563  0.50701569  0.65024418    -0.20700
F700        F  0.25195615  0.46626285  0.66543193    -0.21900
F701        F  0.22642222  0.51467572  0.67114277    -0.19100
F702        F  0.15114363  0.52724027  0.55270980    -0.19200
F703        F  0.11084731  0.48382037  0.56101022    -0.23000
F704        F  0.17962469  0.48086349  0.54210354    -0.24600
C705        C  0.34598973  0.46703837  0.73350304    -0.11400
C706        C  0.35602484  0.49903437  0.73217248     0.11200
C707        C  0.36658803  0.51201406  0.70895789    -0.03200
C708        C  0.36730813  0.49267604  0.68818573    -0.06000
C709        C  0.35580095  0.46072100  0.68893840    -0.16700
C710        C  0.34469029  0.44777051  0.71231139     0.02200
C711        C  0.35701170  0.51842058  0.75523008     0.12100
C712        C  0.37638081  0.54650511  0.70588770     0.62700
H713        H  0.37679166  0.50304467  0.67082050     0.12200
C714        C  0.33117727  0.41403399  0.71507995     0.54900
H715        H  0.33885197  0.45726456  0.75141147     0.07900
C716        C  0.31644534  0.52895529  0.76750209    -0.05900
C717        C  0.32062514  0.54727438  0.78895189    -0.06600
C718        C  0.36383358  0.55620702  0.79810581    -0.16200
C719        C  0.40407590  0.54709458  0.78500957    -0.01800
C720        C  0.40004704  0.52757391  0.76442204    -0.09300
C721        C  0.26891289  0.52055133  0.75818987     0.65000
H722        H  0.29021924  0.55343900  0.79945010     0.10400
C723        C  0.45220632  0.55717449  0.79220838     0.63300
H724        H  0.43103825  0.51970298  0.75517605     0.07800
F725        F  0.29242590  0.40812245  0.70126280    -0.19700
F726        F  0.32107178  0.40635214  0.73919479    -0.15900
F727        F  0.36713209  0.39534058  0.70727996    -0.19400
F728        F  0.41695672  0.55412588  0.71747592    -0.22800
F729        F  0.34059905  0.56367441  0.71588160    -0.24300
F730        F  0.38085311  0.55498745  0.68148348    -0.18300
F731        F  0.47494786  0.56897447  0.77183048    -0.20700
F732        F  0.47647045  0.53184870  0.80093197    -0.21900
F733        F  0.45189548  0.58005422  0.80989380    -0.19100
F734        F  0.23417603  0.53389011  0.77220095    -0.19200
F735        F  0.26307657  0.48877099  0.75894194    -0.23000
F736        F  0.26406421  0.53081560  0.73431236    -0.24600
C737        C  0.78734852  0.99187093  0.64075211    -0.11400
C738        C  0.80524401  0.98199583  0.61816517     0.11200
C739        C  0.78013201  0.98726785  0.59643782    -0.03200
C740        C  0.73842664  0.00385763  0.59797320    -0.06000
C741        C  0.72279712  0.01649589  0.62022607    -0.16700
C742        C  0.74627747  0.00914773  0.64218815     0.02200
C743        C  0.85263043  0.96929005  0.61771340     0.12100
C744        C  0.79813612  0.97635894  0.57171927     0.62700
H745        H  0.71839858  0.00765299  0.58170834     0.12200
C746        C  0.72721215  0.01835662  0.66707317     0.54900
H747        H  0.80690826  0.98700679  0.65709187     0.07900
C748        C  0.89145521  0.98863970  0.62066993    -0.05900
C749        C  0.93513684  0.97491379  0.62141362    -0.06600
C750        C  0.94221842  0.94290880  0.61753940    -0.16200
C751        C  0.90297340  0.92347583  0.61469100    -0.01800
C752        C  0.85870066  0.93714544  0.61548720    -0.09300
C753        C  0.88923554  0.02380772  0.62319815     0.65000
H754        H  0.96444266  0.99006627  0.62412054     0.10400
C755        C  0.90704198  0.88879002  0.61041491     0.63300
H756        H  0.82815335  0.92288285  0.61392628     0.07800
F757        F  0.75280570  0.00590433  0.68604853    -0.19700
F758        F  0.68251773  0.00757870  0.66949923    -0.15900
F759        F  0.72770607  0.05023549  0.66938073    -0.19400
F760        F  0.80083932  0.94435680  0.57153292    -0.22800
F761        F  0.84150370  0.98857854  0.56732619    -0.24300
F762        F  0.76968780  0.98554206  0.55275539    -0.18300
F763        F  0.86428484  0.87468694  0.60903346    -0.20700
F764        F  0.93066038  0.87506019  0.62952742    -0.21900
F765        F  0.93006778  0.88335892  0.58854274    -0.19100
F766        F  0.92169787  0.03734958  0.60786672    -0.19200
F767        F  0.89931922  0.03171065  0.64707600    -0.23000
F768        F  0.84690662  0.03639119  0.61721382    -0.24600
C769        C  0.36573298  0.04386572  0.59688871    -0.11400
C770        C  0.35569742  0.01995522  0.61344027     0.11200
C771        C  0.38889020  0.01043102  0.63069939    -0.03200
C772        C  0.43224853  0.02472487  0.63020002    -0.06000
C773        C  0.44361847  0.04804617  0.61303708    -0.16700
C774        C  0.40896984  0.05861773  0.59649300     0.02200
C775        C  0.31084546  0.00404628  0.61158428     0.12100
C776        C  0.37871061  0.98491030  0.64932126     0.62700
H777        H  0.45818428  0.01687645  0.64293767     0.12200
C778        C  0.41678761  0.08485334  0.57820054     0.54900
H779        H  0.33940764  0.05039501  0.58385720     0.07900
C780        C  0.27088467  0.01534890  0.62345502    -0.05900
C781        C  0.23136914  0.99664082  0.62377240    -0.06600
C782        C  0.23026556  0.96767611  0.61188481    -0.16200
C783        C  0.26929128  0.95792410  0.59804634    -0.01800
C784        C  0.30918709  0.97637311  0.59829806    -0.09300
C785        C  0.26999522  0.04712239  0.63540716     0.65000
H786        H  0.20103589  0.00447395  0.63370225     0.10400
C787        C  0.26922008  0.92848495  0.58300796     0.63300
H788        H  0.34015571  0.96887854  0.58873585     0.07800
F789        F  0.37665975  0.09296654  0.56613964    -0.19700
F790        F  0.44879837  0.07590704  0.56064065    -0.15900
F791        F  0.43211723  0.11097674  0.59028717    -0.19400
F792        F  0.36910205  0.95747566  0.63742407    -0.22800
F793        F  0.34115272  0.99311913  0.66367022    -0.24300
F794        F  0.41564922  0.97958074  0.66470771    -0.18300
F795        F  0.30794404  0.92636390  0.56809528    -0.20700
F796        F  0.23081736  0.92794543  0.56811310    -0.21900
F797        F  0.26888932  0.90307273  0.59851445    -0.19100
F798        F  0.22771048  0.05344220  0.64628395    -0.19200
F799        F  0.27831204  0.06968354  0.61785139    -0.23000
F800        F  0.30345437  0.04894420  0.65322761    -0.24600
C801        C  0.64230072  0.96540589  0.76065387    -0.11400
C802        C  0.61463620  0.99236425  0.76000553     0.11200
C803        C  0.58836538  0.00013205  0.78113118    -0.03200
C804        C  0.59248976  0.98170098  0.80241123    -0.06000
C805        C  0.62159308  0.95548750  0.80362716    -0.16700
C806        C  0.64636032  0.94681066  0.78214369     0.02200
C807        C  0.61252874  0.01183398  0.73698325     0.12100
C808        C  0.55593943  0.02791968  0.78131796     0.62700
H809        H  0.57285742  0.98792252  0.81863784     0.12200
C810        C  0.67785073  0.91869573  0.78208985     0.54900
H811        H  0.66115376  0.95921836  0.74417148     0.07900
C812        C  0.64711897  0.03372049  0.73028034    -0.05900
C813        C  0.64155815  0.05191305  0.70869064    -0.06600
C814        C  0.60241197  0.04909282  0.69378650    -0.16200
C815        C  0.56643284  0.02904157  0.70184310    -0.01800
C816        C  0.57307520  0.00979686  0.72244325    -0.09300
C817        C  0.69010083  0.03731083  0.74565705     0.65000
H818        H  0.66891889  0.06719586  0.70260113     0.10400
C819        C  0.52034901  0.02720138  0.68907947     0.63300
H820        H  0.54643808  0.99337272  0.72762435     0.07800
F821        F  0.70038466  0.91510707  0.75981359    -0.19700
F822        F  0.65217728  0.89224254  0.78654758    -0.15900
F823        F  0.71088229  0.92174553  0.80006466    -0.19400
F824        F  0.51911958  0.02239402  0.76603241    -0.22800
F825        F  0.57894232  0.05421842  0.77340170    -0.24300
F826        F  0.53844433  0.03378222  0.80452562    -0.18300
F827        F  0.51951966  0.00102721  0.67456034    -0.20700
F828        F  0.51199297  0.05322764  0.67489771    -0.21900
F829        F  0.48506604  0.02527540  0.70626834    -0.19100
F830        F  0.71856548  0.06055121  0.73671361    -0.19200
F831        F  0.71488238  0.00988213  0.74566651    -0.23000
F832        F  0.67784588  0.04465832  0.76948122    -0.24600
C833        C  0.47170399  0.28414022  0.65758897    -0.11400
C834        C  0.46098301  0.25976662  0.64158736     0.11200
C835        C  0.42243384  0.26329893  0.62587176    -0.03200
C836        C  0.39774086  0.29170104  0.62576869    -0.06000
C837        C  0.41084850  0.31695619  0.64030082    -0.16700
C838        C  0.44801426  0.31291952  0.65679113     0.02200
C839        C  0.49222981  0.23169619  0.64040103     0.12100
C840        C  0.40874337  0.23760041  0.60845565     0.62700
H841        H  0.36990183  0.29524058  0.61285437     0.12200
C842        C  0.46399249  0.33955842  0.67257841     0.54900
H843        H  0.50086025  0.28112215  0.66972565     0.07900
C844        C  0.53354773  0.23148836  0.62615560    -0.05900
C845        C  0.55867805  0.20342907  0.62349488    -0.06600
C846        C  0.54414223  0.17568964  0.63468735    -0.16200
C847        C  0.50454534  0.17636935  0.65018065    -0.01800
C848        C  0.47943451  0.20441335  0.65289700    -0.09300
C849        C  0.55043437  0.26073257  0.61336260     0.65000
H850        H  0.58880927  0.20258792  0.61161448     0.10400
C851        C  0.48890553  0.14735382  0.66369374     0.63300
H852        H  0.44844387  0.20496426  0.66414803     0.07800
F853        F  0.48538412  0.36166430  0.65803800    -0.19700
F854        F  0.49491459  0.32979586  0.69022455    -0.15900
F855        F  0.42654475  0.35285073  0.68438898    -0.19400
F856        F  0.39682860  0.21136102  0.62166233    -0.22800
F857        F  0.44516349  0.23059319  0.59290815    -0.24300
F858        F  0.37140087  0.24598572  0.59420411    -0.18300
F859        F  0.45382320  0.15366015  0.68031883    -0.20700
F860        F  0.52558213  0.13478738  0.67645016    -0.21900
F861        F  0.47289274  0.12571568  0.64721561    -0.19100
F862        F  0.59042518  0.25549122  0.59995300    -0.19200
F863        F  0.55968891  0.28324926  0.63057166    -0.23000
F864        F  0.51718275  0.27172937  0.59750352    -0.24600
C865        C  0.00869198  0.47638539  0.48467544    -0.11400
C866        C  0.96084404  0.47561980  0.48069712     0.11200
C867        C  0.94355362  0.46882186  0.45720195    -0.03200
C868        C  0.97519553  0.46354013  0.43825360    -0.06000
C869        C  0.02286820  0.46333372  0.44241316    -0.16700
C870        C  0.04028536  0.46959134  0.46586388     0.02200
C871        C  0.93146023  0.48883855  0.49997653     0.12100
C872        C  0.89256278  0.46707992  0.45106905     0.62700
H873        H  0.96237208  0.45825936  0.42018323     0.12200
C874        C  0.09175836  0.47035486  0.47055157     0.54900
H875        H  0.02106008  0.48312958  0.50254452     0.07900
C876        C  0.92349890  0.47368236  0.52261222    -0.05900
C877        C  0.90455141  0.49102514  0.54190519    -0.06600
C878        C  0.89408730  0.52257600  0.53883186    -0.16200
C879        C  0.89675820  0.53638387  0.51530879    -0.01800
C880        C  0.91601126  0.51920635  0.49618999    -0.09300
C881        C  0.93547932  0.43970923  0.52633946     0.65000
H882        H  0.90118609  0.48072346  0.55998069     0.10400
C883        C  0.88114693  0.56936290  0.51042778     0.63300
H884        H  0.92179184  0.53005049  0.47846498     0.07800
F885        F  0.10138890  0.47863384  0.49445354    -0.19700
F886        F  0.11229995  0.49176653  0.45501207    -0.15900
F887        F  0.11083330  0.44143661  0.46633923    -0.19400
F888        F  0.88150404  0.49111894  0.43531942    -0.22800
F889        F  0.86408431  0.46873408  0.47146313    -0.24300
F890        F  0.88357316  0.43928107  0.43954077    -0.18300
F891        F  0.87306514  0.57427126  0.48573893    -0.20700
F892        F  0.91470122  0.58994775  0.51782938    -0.21900
F893        F  0.84048108  0.57513708  0.52298742    -0.19100
F894        F  0.92215170  0.42923357  0.54934794    -0.19200
F895        F  0.98249626  0.43516514  0.52394697    -0.23000
F896        F  0.91301957  0.42209561  0.50902777    -0.24600
C897        C  0.21293906  0.36688595  0.53408016    -0.11400
C898        C  0.23801449  0.36199561  0.51222530     0.11200
C899        C  0.28644036  0.35724436  0.51407885    -0.03200
C900        C  0.30771389  0.35816069  0.53741220    -0.06000
C901        C  0.28314114  0.36425601  0.55933949    -0.16700
C902        C  0.23416442  0.36765234  0.55752389     0.02200
C903        C  0.21351900  0.36411572  0.48764576     0.12100
C904        C  0.31607070  0.35196296  0.49135932     0.62700
H905        H  0.34484311  0.35538737  0.53845776     0.12200
C906        C  0.20377287  0.37194145  0.58005339     0.54900
H907        H  0.17614953  0.37111486  0.53255570     0.07900
C908        C  0.18311599  0.34098141  0.47860441    -0.05900
C909        C  0.16156205  0.34526553  0.45540290    -0.06600
C910        C  0.17136003  0.37089571  0.44006635    -0.16200
C911        C  0.20292788  0.39341237  0.44904473    -0.01800
C912        C  0.22167038  0.39019842  0.47281413    -0.09300
C913        C  0.17445909  0.31146575  0.49311975     0.65000
H914        H  0.13730044  0.32818114  0.44883541     0.10400
C915        C  0.21788583  0.42059293  0.43339798     0.63300
H916        H  0.24401212  0.40806543  0.47996664     0.07800
F917        F  0.21431727  0.34959877  0.59741453    -0.19700
F918        F  0.15741950  0.36901832  0.57459391    -0.15900
F919        F  0.21035696  0.40114035  0.58975249    -0.19400
F920        F  0.31868428  0.37894262  0.47766845    -0.22800
F921        F  0.29726669  0.32873916  0.47722311    -0.24300
F922        F  0.36059624  0.34320911  0.49727322    -0.18300
F923        F  0.17980540  0.43751846  0.42613857    -0.20700
F924        F  0.24124575  0.40917334  0.41325453    -0.21900
F925        F  0.24730543  0.44039610  0.44558336    -0.19100
F926        F  0.14624385  0.29115046  0.48065875    -0.19200
F927        F  0.15336047  0.31834505  0.51522992    -0.23000
F928        F  0.21594592  0.29662164  0.49749437    -0.24600
C929        C  0.98605328  0.20367968  0.34337517    -0.11400
C930        C  0.96818224  0.22951946  0.35588463     0.11200
C931        C  0.92459159  0.22681266  0.36784132    -0.03200
C932        C  0.90206402  0.19770585  0.36821500    -0.06000
C933        C  0.92180993  0.17132357  0.35731752    -0.16700
C934        C  0.96401622  0.17447784  0.34419235     0.02200
C935        C  0.99690735  0.25854135  0.35698839     0.12100
C936        C  0.90253085  0.25434870  0.38068068     0.62700
H937        H  0.86989306  0.19488834  0.37829128     0.12200
C938        C  0.98593976  0.14690949  0.33133641     0.54900
H939        H  0.01883604  0.20624088  0.33384826     0.07900
C940        C  0.03386540  0.26177148  0.37372168    -0.05900
C941        C  0.05870244  0.28999674  0.37432367    -0.06600
C942        C  0.04789641  0.31514803  0.35892747    -0.16200
C943        C  0.01201687  0.31140956  0.34154494    -0.01800
C944        C  0.98745395  0.28313412  0.34083273    -0.09300
C945        C  0.04600352  0.23582656  0.39147602     0.65000
H946        H  0.08533274  0.29329962  0.38790683     0.10400
C947        C  0.99803480  0.33632090  0.32332437     0.63300
H948        H  0.95988979  0.28039727  0.32766017     0.07800
F949        F  0.00179444  0.12574170  0.34841831    -0.19700
F950        F  0.02292717  0.15575010  0.31671668    -0.15900
F951        F  0.95373921  0.13271587  0.31657690    -0.19400
F952        F  0.89361039  0.27753035  0.36379750    -0.22800
F953        F  0.93179024  0.26567965  0.39837482    -0.24300
F954        F  0.86125290  0.24645443  0.39202484    -0.18300
F955        F  0.00150220  0.32450040  0.29984983    -0.20700
F956        F  0.02525448  0.36254596  0.32439120    -0.21900
F957        F  0.95268568  0.34482654  0.32769106    -0.19100
F958        F  0.08164864  0.24407226  0.40684617    -0.19200
F959        F  0.05968260  0.20978637  0.37863399    -0.23000
F960        F  0.00807005  0.22852649  0.40588406    -0.24600
C961        C  0.93251699  0.99035019  0.47973615    -0.11400
C962        C  0.97445478  0.00487540  0.48535995     0.11200
C963        C  0.98945018  0.03108275  0.47197213    -0.03200
C964        C  0.96068341  0.04270205  0.45373858    -0.06000
C965        C  0.91894893  0.02820366  0.44794052    -0.16700
C966        C  0.90420715  0.00171848  0.46094759     0.02200
C967        C  0.00095153  0.99320971  0.50627080     0.12100
C968        C  0.03586201  0.04630421  0.47659809     0.62700
H969        H  0.97156611  0.06275212  0.44311571     0.12200
C970        C  0.85848241  0.98644852  0.45537246     0.54900
H971        H  0.92209602  0.97016994  0.49033642     0.07900
C972        C  0.98858857  0.00138826  0.53049185    -0.05900
C973        C  0.01424701  0.98886626  0.54973668    -0.06600
C974        C  0.05130441  0.96879074  0.54521774    -0.16200
C975        C  0.06559300  0.96219120  0.52105709    -0.01800
C976        C  0.03941331  0.97421328  0.50169787    -0.09300
C977        C  0.94767329  0.02241398  0.53598825     0.65000
H978        H  0.00391521  0.99313893  0.56850529     0.10400
C979        C  0.10843764  0.94298476  0.51602101     0.63300
H980        H  0.04840913  0.96874046  0.48294918     0.07800
F981        F  0.84897666  0.96231599  0.47143548    -0.19700
F982        F  0.85929231  0.97473943  0.43183371    -0.15900
F983        F  0.82335637  0.00810525  0.45734705    -0.19400
F984        F  0.07101281  0.02558936  0.47143616    -0.22800
F985        F  0.03890004  0.05533048  0.50079977    -0.24300
F986        F  0.04251617  0.07228961  0.46200582    -0.18300
F987        F  0.11731259  0.94014919  0.49115829    -0.20700
F988        F  0.10316068  0.91367830  0.52579276    -0.21900
F989        F  0.14607296  0.95695083  0.52674871    -0.19100
F990        F  0.94411547  0.02905963  0.56068072    -0.19200
F991        F  0.90727714  0.00816336  0.52896022    -0.23000
F992        F  0.95228982  0.05017259  0.52345216    -0.24600
C993        C  0.71855335  0.11342022  0.46107948    -0.11400
C994        C  0.74188800  0.12792816  0.48043239     0.11200
C995        C  0.78593580  0.14081970  0.47542203    -0.03200
C996        C  0.80572666  0.13760083  0.45174667    -0.06000
C997        C  0.78355355  0.12189111  0.43244078    -0.16700
C998        C  0.73795358  0.11066558  0.43711511     0.02200
C999        C  0.72051654  0.12800528  0.50594278     0.12100
C1000       C  0.81333399  0.15676090  0.49532007     0.62700
H1001       H  0.84010459  0.14646296  0.44856247     0.12200
C1002       C  0.70954409  0.09555454  0.41723602     0.54900
H1003       H  0.68512294  0.10350074  0.46510700     0.07900
C1004       C  0.68306869  0.14752850  0.51279043    -0.05900
C1005       C  0.66443891  0.14555598  0.53693212    -0.06600
C1006       C  0.68139506  0.12459279  0.55470074    -0.16200
C1007       C  0.71946360  0.10536426  0.54771521    -0.01800
C1008       C  0.73821334  0.10760362  0.52366424    -0.09300
C1009       C  0.66263964  0.17031714  0.49457220     0.65000
H1010       H  0.63517240  0.15992731  0.54188700     0.10400
C1011       C  0.73784911  0.08051010  0.56470734     0.63300
H1012       H  0.76631828  0.09253128  0.51813697     0.07800
F1013       F  0.70601798  0.11546601  0.39738865    -0.19700
F1014       F  0.66521222  0.08877151  0.42522721    -0.15900
F1015       F  0.73012103  0.06812336  0.40996849    -0.19400
F1016       F  0.83048590  0.13475928  0.51134814    -0.22800
F1017       F  0.78562263  0.17733306  0.50811431    -0.24300
F1018       F  0.85015112  0.17331535  0.48565705    -0.18300
F1019       F  0.77275574  0.06313757  0.55398032    -0.20700
F1020       F  0.70222910  0.06067810  0.57071378    -0.21900
F1021       F  0.75533171  0.09383576  0.58566527    -0.19100
F1022       F  0.62882006  0.18870380  0.50519924    -0.19200
F1023       F  0.64291491  0.15443085  0.47539955    -0.23000
F1024       F  0.69686172  0.18956834  0.48547053    -0.24600
C1025       C  0.29598379  0.63509160  0.98488032    -0.11400
C1026       C  0.24799246  0.63252258  0.98362430     0.11200
C1027       C  0.22751974  0.63045073  0.96018608    -0.03200
C1028       C  0.25632051  0.62789527  0.93902550    -0.06000
C1029       C  0.30512611  0.62873309  0.94019196    -0.16700
C1030       C  0.32499489  0.63373673  0.96387684     0.02200
C1031       C  0.22110966  0.63072161  0.00746932     0.12100
C1032       C  0.17542081  0.63161954  0.95760459     0.62700
H1033       H  0.24056999  0.62503863  0.92127033     0.12200
C1034       C  0.37651447  0.63713998  0.96781365     0.54900
H1035       H  0.31072214  0.63741074  0.00294243     0.07900
C1036       C  0.21505676  0.60213467  0.02010623    -0.05900
C1037       C  0.19308364  0.60196085  0.04333856    -0.06600
C1038       C  0.17805267  0.62929908  0.05491935    -0.16200
C1039       C  0.18432976  0.65795020  0.04250928    -0.01800
C1040       C  0.20568932  0.65818857  0.01892224    -0.09300
C1041       C  0.23347392  0.57191320  0.00956764     0.65000
H1042       H  0.18776732  0.58018880  0.05290188     0.10400
C1043       C  0.17063275  0.68811336  0.05474513     0.63300
H1044       H  0.21151333  0.67993993  0.00945377     0.07800
F1045       F  0.39881754  0.60994712  0.96173724    -0.19700
F1046       F  0.38706568  0.64360040  0.99196267    -0.15900
F1047       F  0.39321353  0.66134551  0.95375970    -0.19400
F1048       F  0.15903840  0.65939538  0.96683890    -0.22800
F1049       F  0.15507851  0.60751355  0.97044468    -0.24300
F1050       F  0.16208419  0.62952702  0.93336969    -0.18300
F1051       F  0.18137074  0.71357494  0.04027106    -0.20700
F1052       F  0.19381939  0.69088526  0.07668165    -0.21900
F1053       F  0.12365634  0.68849544  0.05931004    -0.19100
F1054       F  0.22085648  0.54658958  0.02378046    -0.19200
F1055       F  0.28109913  0.57295240  0.00845357    -0.23000
F1056       F  0.21663744  0.56730352  0.98626511    -0.24600
C1057       C  0.98483570  0.52501617  0.95075524    -0.11400
C1058       C  0.97283918  0.51366447  0.97402073     0.11200
C1059       C  0.93522160  0.49302253  0.97690347    -0.03200
C1060       C  0.91573460  0.48063322  0.95578227    -0.06000
C1061       C  0.93127959  0.48949060  0.93245971    -0.16700
C1062       C  0.96413105  0.51342387  0.92967036     0.02200
C1063       C  0.00060287  0.52453014  0.99456389     0.12100
C1064       C  0.91433865  0.48318255  0.00134189     0.62700
H1065       H  0.88958960  0.46273463  0.95749487     0.12200
C1066       C  0.97965191  0.52511917  0.90468622     0.54900
H1067       H  0.01237226  0.54191008  0.94921595     0.07900
C1068       C  0.03491242  0.50594542  0.00560355    -0.05900
C1069       C  0.05799282  0.51776704  0.02602297    -0.06600
C1070       C  0.04931944  0.54792734  0.03453266    -0.16200
C1071       C  0.01869538  0.56773933  0.02127884    -0.01800
C1072       C  0.99422847  0.55516501  0.00176090    -0.09300
C1073       C  0.04699296  0.47399298  0.99583093     0.65000
H1074       H  0.08233514  0.50329501  0.03580409     0.10400
C1075       C  0.00961972  0.60152414  0.02778943     0.63300
H1076       H  0.96904378  0.56900186  0.99199979     0.07800
F1077       F  0.00832177  0.55063883  0.90648717    -0.19700
F1078       F  0.94169839  0.53380907  0.89106983    -0.15900
F1079       F  0.00362332  0.50205860  0.89258541    -0.19400
F1080       F  0.93560393  0.49649852  0.02125127    -0.22800
F1081       F  0.91708495  0.45127507  0.00372758    -0.24300
F1082       F  0.86832414  0.49173621  0.00192205    -0.18300
F1083       F  0.05046161  0.61805359  0.02718020    -0.20700
F1084       F  0.98943944  0.60331167  0.05073456    -0.21900
F1085       F  0.97992583  0.61580478  0.01147328    -0.19100
F1086       F  0.08572263  0.46185369  0.00706945    -0.19200
F1087       F  0.05596935  0.47570190  0.97092144    -0.23000
F1088       F  0.01076071  0.45387563  0.99993487    -0.24600
C1089       C  0.15755358  0.47153889  0.26546371    -0.11400
C1090       C  0.11617399  0.47949000  0.25372534     0.11200
C1091       C  0.07443723  0.46617022  0.26261297    -0.03200
C1092       C  0.07499714  0.44861527  0.28465706    -0.06000
C1093       C  0.11616144  0.44204877  0.29717259    -0.16700
C1094       C  0.15832445  0.45281267  0.28684587     0.02200
C1095       C  0.11867692  0.49849921  0.23048033     0.12100
C1096       C  0.02964431  0.47002042  0.24865323     0.62700
H1097       H  0.04287090  0.44057263  0.29273995     0.12200
C1098       C  0.20395675  0.44505395  0.29873646     0.54900
H1099       H  0.18949727  0.48047063  0.25778518     0.07900
C1100       C  0.11396917  0.53132830  0.22962729    -0.05900
C1101       C  0.11495130  0.54683533  0.20653660    -0.06600
C1102       C  0.12374468  0.53091107  0.18447895    -0.16200
C1103       C  0.13399167  0.49834367  0.18610337    -0.01800
C1104       C  0.12956156  0.48291082  0.20882985    -0.09300
C1105       C  0.11030141  0.54994041  0.25308894     0.65000
H1106       H  0.10910027  0.57167794  0.20560646     0.10400
C1107       C  0.15203528  0.47954421  0.16447310     0.63300
H1108       H  0.13514096  0.45803045  0.20999671     0.07800
F1109       F  0.20624151  0.45900678  0.32137630    -0.19700
F1110       F  0.24110921  0.45524601  0.28479615    -0.15900
F1111       F  0.20784243  0.41326166  0.30154614    -0.19400
F1112       F  0.03531527  0.45929214  0.22497831    -0.22800
F1113       F  0.01687619  0.50086295  0.24779171    -0.24300
F1114       F  0.99396016  0.45349124  0.25948359    -0.18300
F1115       F  0.18721601  0.49557368  0.15284827    -0.20700
F1116       F  0.11685299  0.47363819  0.14820478    -0.21900
F1117       F  0.17000949  0.45120952  0.17177528    -0.19100
F1118       F  0.10734605  0.58146462  0.24841621    -0.19200
F1119       F  0.14904255  0.54466869  0.26713569    -0.23000
F1120       F  0.07171663  0.54128035  0.26640809    -0.24600
C1121       C  0.90889649  0.00945917  0.26579128    -0.11400
C1122       C  0.86956032  0.01040821  0.25105096     0.11200
C1123       C  0.83242076  0.03003599  0.25831259    -0.03200
C1124       C  0.83563036  0.04711205  0.28048144    -0.06000
C1125       C  0.87442069  0.04501354  0.29576060    -0.16700
C1126       C  0.91284727  0.02741790  0.28720765     0.02200
C1127       C  0.87009763  0.99213865  0.22744525     0.12100
C1128       C  0.78911768  0.03233019  0.24300478     0.62700
H1129       H  0.80681967  0.06104472  0.28664154     0.12200
C1130       C  0.95981897  0.02790813  0.29908101     0.54900
H1131       H  0.93773765  0.99507673  0.26008554     0.07900
C1132       C  0.89626055  0.00198559  0.20678593    -0.05900
C1133       C  0.89632794  0.98375507  0.18536137    -0.06600
C1134       C  0.87094026  0.95598067  0.18330573    -0.16200
C1135       C  0.84508850  0.94588389  0.20412175    -0.01800
C1136       C  0.84564606  0.96397239  0.22590236    -0.09300
C1137       C  0.92361576  0.03205314  0.20711650     0.65000
H1138       H  0.91627674  0.99149950  0.16965862     0.10400
C1139       C  0.81583853  0.91683334  0.20319099     0.63300
H1140       H  0.82655186  0.95637409  0.24195075     0.07800
F1141       F  0.99259218  0.03641587  0.28174982    -0.19700
F1142       F  0.97037994  0.99855241  0.30757305    -0.15900
F1143       F  0.96241834  0.04880256  0.31809796    -0.19400
F1144       F  0.76744509  0.00383268  0.24241206    -0.22800
F1145       F  0.80038191  0.04130361  0.21935743    -0.24300
F1146       F  0.75818695  0.05377003  0.25245679    -0.18300
F1147       F  0.79191813  0.91187776  0.22491436    -0.20700
F1148       F  0.84374559  0.89131827  0.19903496    -0.21900
F1149       F  0.78398553  0.91947267  0.18455297    -0.19100
F1150       F  0.94297473  0.03884373  0.18444985    -0.19200
F1151       F  0.95908168  0.02981810  0.22378272    -0.23000
F1152       F  0.89505786  0.05646180  0.21357995    -0.24600
C1153       C  0.97830516  0.78356317  0.15720403    -0.11400
C1154       C  0.98103753  0.76120208  0.13847900     0.11200
C1155       C  0.95638936  0.76661885  0.11647885    -0.03200
C1156       C  0.93200672  0.79479119  0.11351159    -0.06000
C1157       C  0.93054416  0.81760019  0.13178762    -0.16700
C1158       C  0.95361796  0.81181220  0.15413397     0.02200
C1159       C  0.00951140  0.73219944  0.14208803     0.12100
C1160       C  0.95639791  0.74287576  0.09597797     0.62700
H1161       H  0.91495103  0.79977883  0.09635461     0.12200
C1162       C  0.95251632  0.83571712  0.17435673     0.54900
H1163       H  0.99647011  0.77896751  0.17410198     0.07900
C1164       C  0.05725863  0.73066871  0.13603462    -0.05900
C1165       C  0.07976113  0.70136695  0.13557178    -0.06600
C1166       C  0.05643899  0.67382665  0.14184979    -0.16200
C1167       C  0.01059824  0.67621845  0.15114980    -0.01800
C1168       C  0.98755007  0.70510959  0.15041744    -0.09300
C1169       C  0.08392904  0.75986677  0.12961015     0.65000
H1170       H  0.11479855  0.69956755  0.12869141     0.10400
C1171       C  0.98434849  0.64851200  0.16123153     0.63300
H1172       H  0.95157949  0.70641291  0.15590773     0.07800
F1173       F  0.97158711  0.86313927  0.16597991    -0.19700
F1174       F  0.97701499  0.82602294  0.19467728    -0.15900
F1175       F  0.90732251  0.84109451  0.18147242    -0.19400
F1176       F  0.93764486  0.71534901  0.10440309    -0.22800
F1177       F  0.00097389  0.73747862  0.08786121    -0.24300
F1178       F  0.93067505  0.75276888  0.07614355    -0.18300
F1179       F  0.96051010  0.65693895  0.18226072    -0.20700
F1180       F  0.01346959  0.62426800  0.16739339    -0.21900
F1181       F  0.95316177  0.63841966  0.14399286    -0.19100
F1182       F  0.12990496  0.75356507  0.12462846    -0.19200
F1183       F  0.08192326  0.78019333  0.14911628    -0.23000
F1184       F  0.06516337  0.77407347  0.10923713    -0.24600
C1185       C  0.96026124  0.98735034  0.00067056    -0.11400
C1186       C  0.99509832  0.96693317  0.99286810     0.11200
C1187       C  0.00096908  0.93800124  0.00459202    -0.03200
C1188       C  0.97024017  0.92998347  0.02349786    -0.06000
C1189       C  0.93618198  0.95072560  0.03197640    -0.16700
C1190       C  0.93118514  0.98006224  0.02057185     0.02200
C1191       C  0.02754663  0.97822957  0.97399921     0.12100
C1192       C  0.04039713  0.91628560  0.99777589     0.62700
H1193       H  0.97443195  0.90793109  0.03283069     0.12200
C1194       C  0.89538504  0.00337805  0.02912811     0.54900
H1195       H  0.95733787  0.00965416  0.99155925     0.07900
C1196       C  0.02342336  0.97093824  0.94881953    -0.05900
C1197       C  0.05212189  0.98637908  0.93203936    -0.06600
C1198       C  0.08207679  0.00985149  0.93952947    -0.16200
C1199       C  0.08805607  0.01598742  0.96464242    -0.01800
C1200       C  0.06069589  0.99975676  0.98160708    -0.09300
C1201       C  0.98796426  0.94893922  0.93824953     0.65000
H1202       H  0.04760412  0.98231471  0.91258577     0.10400
C1203       C  0.12221224  0.04009999  0.97331805     0.63300
H1204       H  0.06279140  0.00528776  0.00087420     0.07800
F1205       F  0.89302880  0.02885713  0.01365488    -0.19700
F1206       F  0.90610150  0.01396576  0.05226139    -0.15900
F1207       F  0.85257885  0.98943415  0.02966083    -0.19400
F1208       F  0.08204248  0.93165706  0.99943884    -0.22800
F1209       F  0.03511263  0.90586129  0.97409469    -0.24300
F1210       F  0.04214181  0.89066297  0.01311963    -0.18300
F1211       F  0.12758522  0.03902711  0.99849201    -0.20700
F1212       F  0.10718992  0.06948489  0.96702003    -0.21900
F1213       F  0.16480863  0.03472841  0.96254036    -0.19100
F1214       F  0.96147078  0.96471758  0.92130711    -0.19200
F1215       F  0.95852909  0.93631891  0.95562821    -0.23000
F1216       F  0.01063970  0.92496917  0.92640560    -0.24600
C1217       C  0.79404252  0.83675536  0.01239199    -0.11400
C1218       C  0.75576073  0.85543298  0.00687660     0.11200
C1219       C  0.73555734  0.87330774  0.02594020    -0.03200
C1220       C  0.75748872  0.87451459  0.04903385    -0.06000
C1221       C  0.79888916  0.85847634  0.05384880    -0.16700
C1222       C  0.81550379  0.83743514  0.03562983     0.02200
C1223       C  0.73763715  0.85602471  0.98102656     0.12100
C1224       C  0.69129996  0.89142989  0.02169851     0.62700
H1225       H  0.74317551  0.88906287  0.06328506     0.12200
C1226       C  0.85492243  0.81505844  0.04057575     0.54900
H1227       H  0.80788278  0.82210221  0.99801414     0.07900
C1228       C  0.75487720  0.87687538  0.96301561    -0.05900
C1229       C  0.73321990  0.87849868  0.93983298    -0.06600
C1230       C  0.69565556  0.85936351  0.93363290    -0.16200
C1231       C  0.68096411  0.83674828  0.95120998    -0.01800
C1232       C  0.70211203  0.83566518  0.97454553    -0.09300
C1233       C  0.79638246  0.89716737  0.96830622     0.65000
H1234       H  0.74462680  0.89563086  0.92666574     0.10400
C1235       C  0.64307291  0.81365088  0.94571227     0.63300
H1236       H  0.69009655  0.81937182  0.98828305     0.07800
F1237       F  0.89660368  0.83054389  0.03974599    -0.19700
F1238       F  0.85667136  0.79156029  0.02337399    -0.15900
F1239       F  0.84891593  0.80134408  0.06334493    -0.19400
F1240       F  0.65667385  0.87141280  0.01471948    -0.22800
F1241       F  0.69800835  0.91330730  0.00343784    -0.24300
F1242       F  0.67655937  0.90666842  0.04262896    -0.18300
F1243       F  0.64202541  0.78967084  0.96266436    -0.20700
F1244       F  0.65042706  0.80069533  0.92289891    -0.21900
F1245       F  0.60062854  0.82832534  0.94630349    -0.19100
F1246       F  0.80692976  0.91664815  0.94883450    -0.19200
F1247       F  0.83438001  0.87856511  0.97269882    -0.23000
F1248       F  0.78801559  0.91534380  0.98867468    -0.24600
C1249       C  0.75557289  0.35396638  0.02630073    -0.11400
C1250       C  0.73349601  0.35794303  0.00360545     0.11200
C1251       C  0.68473607  0.35855728  0.00323635    -0.03200
C1252       C  0.66019008  0.35893910  0.02568246    -0.06000
C1253       C  0.68228592  0.35960415  0.04866651    -0.16700
C1254       C  0.73081770  0.35436828  0.04890094     0.02200
C1255       C  0.76183476  0.36410666  0.98081209     0.12100
C1256       C  0.65872618  0.35951201  0.97916637     0.62700
H1257       H  0.62295378  0.35960870  0.02533486     0.12200
C1258       C  0.75664519  0.34928205  0.07260501     0.54900
H1259       H  0.79282749  0.35200872  0.02621443     0.07900
C1260       C  0.78051039  0.39389848  0.97594568    -0.05900
C1261       C  0.80548651  0.39889990  0.95401288    -0.06600
C1262       C  0.81084222  0.37582285  0.93603634    -0.16200
C1263       C  0.79113806  0.34621751  0.94051263    -0.01800
C1264       C  0.76782124  0.34067252  0.96311909    -0.09300
C1265       C  0.77296224  0.42072286  0.99353560     0.65000
H1266       H  0.82081622  0.42136474  0.95055648     0.10400
C1267       C  0.79530431  0.32054364  0.92173642     0.63300
H1268       H  0.75346433  0.31804583  0.96703882     0.07800
F1269       F  0.80219859  0.34098978  0.06840646    -0.19700
F1270       F  0.73604552  0.32557384  0.08586828    -0.15900
F1271       F  0.75620097  0.37615030  0.08625520    -0.19400
F1272       F  0.66729767  0.33261761  0.96620577    -0.22800
F1273       F  0.67277253  0.38471259  0.96525207    -0.24300
F1274       F  0.61153068  0.36185603  0.98278821    -0.18300
F1275       F  0.77594456  0.29312774  0.93012924    -0.20700
F1276       F  0.84130545  0.31501308  0.91633977    -0.21900
F1277       F  0.77263456  0.32919563  0.90057763    -0.19100
F1278       F  0.79261240  0.44793186  0.98489809    -0.19200
F1279       F  0.79240447  0.41398812  0.01597138    -0.23000
F1280       F  0.72621182  0.42590972  0.99667776    -0.24600
C1281       C  0.45953589  0.50666579  0.98161014    -0.11400
C1282       C  0.50593636  0.51553238  0.98374227     0.11200
C1283       C  0.52775185  0.53287488  0.96492715    -0.03200
C1284       C  0.50134972  0.54176260  0.94474499    -0.06000
C1285       C  0.45472190  0.53367500  0.94304158    -0.16700
C1286       C  0.43306312  0.51608242  0.96153373     0.02200
C1287       C  0.53145721  0.50395005  0.00504127     0.12100
C1288       C  0.57834602  0.54197465  0.96614982     0.62700
H1289       H  0.51680293  0.55539593  0.93011366     0.12200
C1290       C  0.38245606  0.50775193  0.95992834     0.54900
H1291       H  0.44423181  0.49242501  0.99591158     0.07900
C1292       C  0.52437078  0.51595692  0.02888001    -0.05900
C1293       C  0.54463249  0.50035803  0.04868536    -0.06600
C1294       C  0.56984276  0.47298884  0.04507755    -0.16200
C1295       C  0.57922322  0.46226798  0.02114057    -0.01800
C1296       C  0.55949912  0.47795220  0.00139517    -0.09300
C1297       C  0.49385814  0.54405727  0.03347472     0.65000
H1298       H  0.53765263  0.50786480  0.06725887     0.10400
C1299       C  0.60670792  0.43302552  0.01647115     0.63300
H1300       H  0.56335113  0.46881049  0.98303776     0.07800
F1301       F  0.36796146  0.49033945  0.97991528    -0.19700
F1302       F  0.37501533  0.49070756  0.93892377    -0.15900
F1303       F  0.35617287  0.53455478  0.95904789    -0.19400
F1304       F  0.60588627  0.51579996  0.96518906    -0.22800
F1305       F  0.58670356  0.55760777  0.98771773    -0.24300
F1306       F  0.59110083  0.56111560  0.94682172    -0.18300
F1307       F  0.57931978  0.40770228  0.02178058    -0.20700
F1308       F  0.64563175  0.43248971  0.03097467    -0.21900
F1309       F  0.62088440  0.43105088  0.99224389    -0.19100
F1310       F  0.49496472  0.55322723  0.05774560    -0.19200
F1311       F  0.44864361  0.53722978  0.02780407    -0.23000
F1312       F  0.50861095  0.56865559  0.01912504    -0.24600
C1313       C  0.77942898  0.51457209  0.12413556    -0.11400
C1314       C  0.82054185  0.49985443  0.11733967     0.11200
C1315       C  0.81971175  0.46821385  0.11058980    -0.03200
C1316       C  0.77724908  0.45233597  0.11085221    -0.06000
C1317       C  0.73540270  0.46691997  0.11742029    -0.16700
C1318       C  0.73660001  0.49909543  0.12393299     0.02200
C1319       C  0.86417260  0.51816173  0.11732713     0.12100
C1320       C  0.86377474  0.45126696  0.10339620     0.62700
H1321       H  0.77672004  0.42794566  0.10601466     0.12200
C1322       C  0.69355043  0.51767323  0.13055215     0.54900
H1323       H  0.78136696  0.53871273  0.12950852     0.07900
C1324       C  0.87671651  0.53795012  0.09760496    -0.05900
C1325       C  0.92119966  0.55105097  0.09724034    -0.06600
C1326       C  0.95281111  0.54570500  0.11623537    -0.16200
C1327       C  0.93812544  0.52866570  0.13725750    -0.01800
C1328       C  0.89403952  0.51491352  0.13725926    -0.09300
C1329       C  0.84337199  0.54499217  0.07697641     0.65000
H1330       H  0.93212763  0.56477601  0.08161504     0.10400
C1331       C  0.96820040  0.52520795  0.15979070     0.63300
H1332       H  0.88297641  0.50067939  0.15258727     0.07800
F1333       F  0.66326111  0.51763266  0.11108900    -0.19700
F1334       F  0.70351008  0.54834825  0.13567886    -0.15900
F1335       F  0.67256790  0.50510907  0.15117186    -0.19400
F1336       F  0.89252789  0.44917364  0.12341972    -0.22800
F1337       F  0.88626577  0.46712395  0.08475024    -0.24300
F1338       F  0.85505637  0.42150686  0.09525435    -0.18300
F1339       F  0.94316625  0.51439442  0.17977330    -0.20700
F1340       F  0.98656594  0.55367189  0.16602936    -0.21900
F1341       F  0.00354566  0.50437803  0.15523712    -0.19100
F1342       F  0.86308675  0.56377833  0.05913123    -0.19200
F1343       F  0.80508203  0.56024735  0.08626667    -0.23000
F1344       F  0.82950809  0.51778008  0.06597951    -0.24600
C1345       C  0.37410262  0.45255374  0.12685235    -0.11400
C1346       C  0.35869515  0.46396959  0.10414874     0.11200
C1347       C  0.38735135  0.46070491  0.08310764    -0.03200
C1348       C  0.43107766  0.44684024  0.08572994    -0.06000
C1349       C  0.44697248  0.43641115  0.10853008    -0.16700
C1350       C  0.41796968  0.43865119  0.12936187     0.02200
C1351       C  0.31510473  0.48247252  0.10353636     0.12100
C1352       C  0.37223328  0.47228697  0.05806745     0.62700
H1353       H  0.45420391  0.44515460  0.07007161     0.12200
C1354       C  0.43406590  0.42705632  0.15408880     0.54900
H1355       H  0.35216087  0.45573103  0.14281274     0.07900
C1356       C  0.27074802  0.46878945  0.10336225    -0.05900
C1357       C  0.23155873  0.48827221  0.10286486    -0.06600
C1358       C  0.23527196  0.52078445  0.10376310    -0.16200
C1359       C  0.27991478  0.53439784  0.10382514    -0.01800
C1360       C  0.31892694  0.51486555  0.10382292    -0.09300
C1361       C  0.26482252  0.43385266  0.10458376     0.65000
H1362       H  0.19738108  0.47813205  0.10309583     0.10400
C1363       C  0.28688844  0.56930245  0.10328500     0.63300
H1364       H  0.35325168  0.52478120  0.10433487     0.07800
F1365       F  0.39995689  0.42984053  0.17186192    -0.19700
F1366       F  0.47191845  0.44398629  0.16139229    -0.15900
F1367       F  0.44630471  0.39610645  0.15238766    -0.19400
F1368       F  0.36601471  0.50405808  0.05844555    -0.22800
F1369       F  0.33121881  0.45829891  0.05171442    -0.24300
F1370       F  0.40461044  0.46562527  0.04003072    -0.18300
F1371       F  0.33265844  0.57709888  0.09926527    -0.20700
F1372       F  0.27339735  0.58208466  0.12539339    -0.21900
F1373       F  0.26138435  0.58222443  0.08454693    -0.19100
F1374       F  0.21891016  0.42531552  0.10310982    -0.19200
F1375       F  0.28181000  0.42275389  0.12653485    -0.23000
F1376       F  0.28849245  0.41996367  0.08546666    -0.24600
C1377       C  0.68640623  0.00354417  0.09539885    -0.11400
C1378       C  0.67512970  0.01378982  0.11911163     0.11200
C1379       C  0.70542002  0.00739496  0.13869555    -0.03200
C1380       C  0.74414308  0.98850005  0.13428614    -0.06000
C1381       C  0.75471674  0.97733896  0.11078010    -0.16700
C1382       C  0.72681142  0.98618619  0.09075282     0.02200
C1383       C  0.62934939  0.02846209  0.12335472     0.12100
C1384       C  0.69722263  0.02097751  0.16399309     0.62700
H1385       H  0.76675151  0.98229725  0.14927250     0.12200
C1386       C  0.73998858  0.97774575  0.06474459     0.54900
H1387       H  0.66324659  0.00932120  0.08058820     0.07900
C1388       C  0.61750338  0.05877594  0.11538551    -0.05900
C1389       C  0.57136912  0.06865901  0.11779478    -0.06600
C1390       C  0.53704727  0.04948817  0.12810592    -0.16200
C1391       C  0.55016830  0.02026045  0.13811152    -0.01800
C1392       C  0.59572608  0.00998251  0.13473431    -0.09300
C1393       C  0.65126874  0.08153243  0.10390809     0.65000
H1394       H  0.56183817  0.09107796  0.11042932     0.10400
C1395       C  0.51682705  0.99926790  0.15198693     0.63300
H1396       H  0.60527293  0.98683426  0.14050321     0.07800
F1397       F  0.77981542  0.99335639  0.05833541    -0.19700
F1398       F  0.70599609  0.98581750  0.04820948    -0.15900
F1399       F  0.74766701  0.94624922  0.06297063    -0.19400
F1400       F  0.65838106  0.00802807  0.17466833    -0.22800
F1401       F  0.69116309  0.05273021  0.16206587    -0.24300
F1402       F  0.73415616  0.01553195  0.17935831    -0.18300
F1403       F  0.54010919  0.97761965  0.16609098    -0.20700
F1404       F  0.48946289  0.98332956  0.13568851    -0.21900
F1405       F  0.48939959  0.01661656  0.16766415    -0.19100
F1406       F  0.65091194  0.10865376  0.11736669    -0.19200
F1407       F  0.63759341  0.08826126  0.08024345    -0.23000
F1408       F  0.69608516  0.07061204  0.10310409    -0.24600
C1409       C  0.10051494  0.96500681  0.12539939    -0.11400
C1410       C  0.11951965  0.97491956  0.10299935     0.11200
C1411       C  0.09550820  0.96959144  0.08095635    -0.03200
C1412       C  0.05182241  0.95558526  0.08230438    -0.06000
C1413       C  0.03146441  0.94758392  0.10488032    -0.16700
C1414       C  0.05617778  0.95198276  0.12681364     0.02200
C1415       C  0.16353358  0.99230677  0.10348648     0.12100
C1416       C  0.11538589  0.97935225  0.05627720     0.62700
H1417       H  0.03225881  0.95184961  0.06569708     0.12200
C1418       C  0.03594899  0.94280549  0.15148104     0.54900
H1419       H  0.12011927  0.96878890  0.14196328     0.07900
C1420       C  0.16512023  0.02365401  0.11091477    -0.05900
C1421       C  0.20819427  0.03833133  0.11229084    -0.06600
C1422       C  0.24960345  0.02270874  0.10665796    -0.16200
C1423       C  0.24748188  0.99163876  0.09787750    -0.01800
C1424       C  0.20428021  0.97690210  0.09692097    -0.09300
C1425       C  0.12156864  0.04125913  0.11806457     0.65000
H1426       H  0.20980340  0.06199356  0.11887262     0.10400
C1427       C  0.28986903  0.97392670  0.08910519     0.63300
H1428       H  0.20193157  0.95283589  0.09138175     0.07800
F1429       F  0.99894278  0.96179949  0.15716507    -0.19700
F1430       F  0.06793297  0.94533605  0.17005328    -0.15900
F1431       F  0.02133448  0.91236575  0.15067338    -0.19400
F1432       F  0.15535626  0.96288180  0.05141683    -0.22800
F1433       F  0.12525039  0.01071240  0.05628707    -0.24300
F1434       F  0.08482728  0.97378612  0.03751644    -0.18300
F1435       F  0.31707197  0.96583533  0.10878893    -0.20700
F1436       F  0.31494266  0.99200056  0.07283151    -0.21900
F1437       F  0.27816225  0.94686775  0.07710573    -0.19100
F1438       F  0.13013424  0.07246092  0.12170283    -0.19200
F1439       F  0.10360603  0.02917548  0.13960451    -0.23000
F1440       F  0.08900884  0.03882291  0.09980257    -0.24600
C1441       C  0.52876585  0.27154152  0.15959087    -0.11400
C1442       C  0.50806563  0.25429469  0.14081322     0.11200
C1443       C  0.51342852  0.26442093  0.11623995    -0.03200
C1444       C  0.53825365  0.29178866  0.11137248    -0.06000
C1445       C  0.55804989  0.30989188  0.13000715    -0.16700
C1446       C  0.55412249  0.29910097  0.15464102     0.02200
C1447       C  0.48150109  0.22529610  0.14668866     0.12100
C1448       C  0.49280763  0.24638106  0.09505523     0.62700
H1449       H  0.54189778  0.29949521  0.09256305     0.12200
C1450       C  0.57582432  0.31658692  0.17564332     0.54900
H1451       H  0.52466393  0.26325345  0.17822704     0.07900
C1452       C  0.50360429  0.19603244  0.14828992    -0.05900
C1453       C  0.47669087  0.16894715  0.14651053    -0.06600
C1454       C  0.42859373  0.17015500  0.14352969    -0.16200
C1455       C  0.40597860  0.19922085  0.14490357    -0.01800
C1456       C  0.43292979  0.22645824  0.14671633    -0.09300
C1457       C  0.55559189  0.19348310  0.15079179     0.65000
H1458       H  0.49346543  0.14647649  0.14564234     0.10400
C1459       C  0.35396537  0.20139324  0.14298592     0.63300
H1460       H  0.41644817  0.24902853  0.14612948     0.07800
F1461       F  0.56696288  0.30248349  0.19802714    -0.19700
F1462       F  0.55841042  0.34646014  0.17654881    -0.15900
F1463       F  0.62316410  0.31759869  0.17234773    -0.19400
F1464       F  0.44529735  0.24571242  0.09727908    -0.22800
F1465       F  0.50954658  0.21633425  0.09503949    -0.24300
F1466       F  0.50355878  0.25959679  0.07256602    -0.18300
F1467       F  0.33851107  0.23168413  0.14508142    -0.20700
F1468       F  0.33381818  0.18407337  0.16156638    -0.21900
F1469       F  0.33987930  0.19003581  0.12060609    -0.19100
F1470       F  0.57008118  0.16289293  0.15206480    -0.19200
F1471       F  0.56914970  0.20815025  0.17201181    -0.23000
F1472       F  0.57734273  0.20729203  0.13093794    -0.24600
C1473       C  0.26133649  0.10567199  0.96630884    -0.11400
C1474       C  0.24815648  0.12865067  0.98310341     0.11200
C1475       C  0.21463106  0.15089842  0.97594388    -0.03200
C1476       C  0.19293397  0.14787126  0.95288631    -0.06000
C1477       C  0.20443283  0.12385035  0.93658083    -0.16700
C1478       C  0.23975685  0.10264947  0.94332905     0.02200
C1479       C  0.26919526  0.12793612  0.00824054     0.12100
C1480       C  0.20114441  0.17726875  0.99287404     0.62700
H1481       H  0.16531406  0.16353806  0.94781421     0.12200
C1482       C  0.25357709  0.07625625  0.92658704     0.54900
H1483       H  0.28776856  0.08931377  0.97179458     0.07900
C1484       C  0.25373826  0.10702579  0.02674783    -0.05900
C1485       C  0.27706686  0.10593613  0.04941802    -0.06600
C1486       C  0.31576546  0.12452771  0.05403470    -0.16200
C1487       C  0.33034672  0.14605296  0.03585656    -0.01800
C1488       C  0.30689370  0.14730865  0.01321026    -0.09300
C1489       C  0.21379689  0.08507501  0.02222397     0.65000
H1490       H  0.26681247  0.08921049  0.06326988     0.10400
C1491       C  0.36995045  0.16806290  0.04067727     0.63300
H1492       H  0.31847505  0.16302572  0.99893551     0.07800
F1493       F  0.28722927  0.05750088  0.93679823    -0.19700
F1494       F  0.27090901  0.08835752  0.90492543    -0.15900
F1495       F  0.21560602  0.05797871  0.92185991    -0.19400
F1496       F  0.23930768  0.19541189  0.99751033    -0.22800
F1497       F  0.18418923  0.16555744  0.01476900    -0.24300
F1498       F  0.16755188  0.19608733  0.98269364    -0.18300
F1499       F  0.41054231  0.15163946  0.04359295    -0.20700
F1500       F  0.36074976  0.18471674  0.06177835    -0.21900
F1501       F  0.37626420  0.18892963  0.02160070    -0.19100
F1502       F  0.20177036  0.06855756  0.04312765    -0.19200
F1503       F  0.22593575  0.06404779  0.00423377    -0.23000
F1504       F  0.17544320  0.10157684  0.01472394    -0.24600
C1505       C  0.46770118  0.00449574  0.01104664    -0.11400
C1506       C  0.50924957  0.99001412  0.01767225     0.11200
C1507       C  0.52376587  0.98986562  0.04230493    -0.03200
C1508       C  0.49467707  0.00329810  0.05994282    -0.06000
C1509       C  0.45329082  0.01785337  0.05328475    -0.16700
C1510       C  0.43958965  0.01903518  0.02861902     0.02200
C1511       C  0.53692215  0.97540974  0.99818409     0.12100
C1512       C  0.57074991  0.97727298  0.04958908     0.62700
H1513       H  0.50521789  0.00411253  0.07896291     0.12200
C1514       C  0.39663730  0.03668776  0.02107489     0.54900
H1515       H  0.45807150  0.00484361  0.99189069     0.07900
C1516       C  0.52608892  0.94553063  0.98951546    -0.05900
C1517       C  0.55066217  0.93421377  0.96930629    -0.06600
C1518       C  0.58421577  0.95223696  0.95719524    -0.16200
C1519       C  0.59711523  0.98126777  0.96686581    -0.01800
C1520       C  0.57273096  0.99258108  0.98729958    -0.09300
C1521       C  0.48761006  0.92620513  0.00094407     0.65000
H1522       H  0.54121033  0.91199459  0.96166528     0.10400
C1523       C  0.63544299  0.00052110  0.95548294     0.63300
H1524       H  0.58022903  0.01547134  0.99433975     0.07800
F1525       F  0.35877197  0.02542452  0.03381942    -0.19700
F1526       F  0.38816885  0.03388307  0.99626292    -0.15900
F1527       F  0.40197087  0.06782007  0.02633719    -0.19400
F1528       F  0.60488630  0.99558109  0.03925458    -0.22800
F1529       F  0.57628942  0.94717025  0.04145332    -0.24300
F1530       F  0.57645179  0.97729013  0.07475116    -0.18300
F1531       F  0.61917991  0.01588819  0.93500644    -0.20700
F1532       F  0.67213628  0.98167752  0.94880431    -0.21900
F1533       F  0.65167039  0.02232520  0.97182508    -0.19100
F1534       F  0.48360414  0.89754767  0.98981662    -0.19200
F1535       F  0.44585326  0.94142918  0.99860740    -0.23000
F1536       F  0.49629310  0.92125652  0.02550944    -0.24600
C1537       C  0.71001908  0.65757723  0.46136916    -0.11400
C1538       C  0.71876240  0.63329315  0.47812412     0.11200
C1539       C  0.70416479  0.60287323  0.47207327    -0.03200
C1540       C  0.67992246  0.59816032  0.45016361    -0.06000
C1541       C  0.67153051  0.62213383  0.43326784    -0.16700
C1542       C  0.68733348  0.65238089  0.43876251     0.02200
C1543       C  0.74380557  0.63953242  0.50171627     0.12100
C1544       C  0.71437967  0.57520907  0.48856175     0.62700
H1545       H  0.66647573  0.57532461  0.44614128     0.12200
C1546       C  0.67909163  0.67901112  0.42113464     0.54900
H1547       H  0.72095315  0.68075675  0.46619461     0.07900
C1548       C  0.79227886  0.64322428  0.50253635    -0.05900
C1549       C  0.81461023  0.64179210  0.52544853    -0.06600
C1550       C  0.79068446  0.63563519  0.54763664    -0.16200
C1551       C  0.74158431  0.63515290  0.54690262    -0.01800
C1552       C  0.71915670  0.63779382  0.52397542    -0.09300
C1553       C  0.82055142  0.64753343  0.47920843     0.65000
H1554       H  0.85182624  0.64359491  0.52594679     0.10400
C1555       C  0.71276492  0.62929129  0.56967188     0.63300
H1556       H  0.68196277  0.63604320  0.52302630     0.07800
F1557       F  0.70237944  0.67337424  0.39938712    -0.19700
F1558       F  0.69459113  0.70690403  0.43040649    -0.15900
F1559       F  0.63241064  0.68188500  0.41651804    -0.19400
F1560       F  0.69038838  0.57789038  0.51043059    -0.22800
F1561       F  0.76112048  0.57371969  0.49322837    -0.24300
F1562       F  0.70169150  0.54747106  0.47787793    -0.18300
F1563       F  0.66592767  0.63073562  0.56500737    -0.20700
F1564       F  0.72255306  0.65121223  0.58728505    -0.21900
F1565       F  0.72250265  0.60002592  0.57846852    -0.19100
F1566       F  0.86741552  0.64848084  0.48383160    -0.19200
F1567       F  0.80837087  0.67514626  0.46802720    -0.23000
F1568       F  0.81260488  0.62331718  0.46326706    -0.24600
C1569       C  0.48911337  0.47456127  0.45325273    -0.11400
C1570       C  0.49985099  0.48559134  0.47659788     0.11200
C1571       C  0.53742202  0.50617560  0.47960413    -0.03200
C1572       C  0.55778778  0.51904976  0.45855316    -0.06000
C1573       C  0.54401868  0.51014111  0.43509399    -0.16700
C1574       C  0.51147466  0.48603378  0.43227384     0.02200
C1575       C  0.47185306  0.47384583  0.49721688     0.12100
C1576       C  0.55776024  0.51509016  0.50414660     0.62700
H1577       H  0.58396228  0.53685630  0.46041939     0.12200
C1578       C  0.49859488  0.47358056  0.40731766     0.54900
H1579       H  0.46183957  0.45754325  0.45158380     0.07900
C1580       C  0.43711155  0.49182096  0.50870009    -0.05900
C1581       C  0.41480164  0.47959533  0.52953786    -0.06600
C1582       C  0.42395344  0.44934826  0.53781407    -0.16200
C1583       C  0.45517119  0.43014577  0.52425808    -0.01800
C1584       C  0.47934963  0.44328103  0.50451010    -0.09300
C1585       C  0.42303349  0.52322289  0.49852975     0.65000
H1586       H  0.38996401  0.49358159  0.53955023     0.10400
C1587       C  0.46471647  0.39632249  0.53051771     0.63300
H1588       H  0.50498568  0.42989719  0.49455364     0.07800
F1589       F  0.47672570  0.49642317  0.39400220    -0.19700
F1590       F  0.46909126  0.44844923  0.40912742    -0.15900
F1591       F  0.53786001  0.46397954  0.39491742    -0.19400
F1592       F  0.53553309  0.50150517  0.52392758    -0.22800
F1593       F  0.55571683  0.54693330  0.50689906    -0.24300
F1594       F  0.60352880  0.50594294  0.50461278    -0.18300
F1595       F  0.49551724  0.38275322  0.51423142    -0.20700
F1596       F  0.42431852  0.37947508  0.52953901    -0.21900
F1597       F  0.48367648  0.39404633  0.55354036    -0.19100
F1598       F  0.38634747  0.53585952  0.51150167    -0.19200
F1599       F  0.40976031  0.52001847  0.47438125    -0.23000
F1600       F  0.45952458  0.54367080  0.49961248    -0.24600
C1601       C  0.79465993  0.50595657  0.38594795    -0.11400
C1602       C  0.80477065  0.48639744  0.36617640     0.11200
C1603       C  0.77125512  0.48158394  0.34787534    -0.03200
C1604       C  0.72966763  0.49853469  0.34909266    -0.06000
C1605       C  0.72063265  0.51958239  0.36815338    -0.16700
C1606       C  0.75295020  0.52260412  0.38738182     0.02200
C1607       C  0.85122013  0.47171367  0.36521233     0.12100
C1608       C  0.77941516  0.45858256  0.32729740     0.62700
H1609       H  0.70416080  0.49591121  0.33486528     0.12200
C1610       C  0.74277711  0.54221701  0.40981244     0.54900
H1611       H  0.82030987  0.50849696  0.40009293     0.07900
C1612       C  0.89025948  0.48808141  0.35644321    -0.05900
C1613       C  0.93373695  0.47365611  0.35753056    -0.06600
C1614       C  0.93982870  0.44395378  0.36790422    -0.16200
C1615       C  0.90033134  0.42740367  0.37638107    -0.01800
C1616       C  0.85662054  0.44171896  0.37479204    -0.09300
C1617       C  0.88627973  0.52116236  0.34686720     0.65000
H1618       H  0.96382940  0.48639897  0.35142335     0.10400
C1619       C  0.90367350  0.39485908  0.38701807     0.63300
H1620       H  0.82623414  0.42995765  0.38173509     0.07800
F1621       F  0.74247447  0.57330212  0.40354598    -0.19700
F1622       F  0.77546557  0.53796807  0.42788831    -0.15900
F1623       F  0.70029134  0.53394796  0.41948583    -0.19400
F1624       F  0.78434704  0.42910796  0.33700708    -0.22800
F1625       F  0.81900976  0.46622852  0.31436316    -0.24300
F1626       F  0.74303490  0.45810652  0.31101994    -0.18300
F1627       F  0.92443254  0.39563961  0.40971151    -0.20700
F1628       F  0.92916287  0.37615728  0.37144756    -0.21900
F1629       F  0.86061852  0.38148562  0.39005915    -0.19100
F1630       F  0.92798733  0.53216894  0.33789515    -0.19200
F1631       F  0.87202207  0.54056318  0.36556775    -0.23000
F1632       F  0.85462077  0.52259422  0.32809929    -0.24600
C1633       C  0.35759814  0.54981318  0.39012702    -0.11400
C1634       C  0.34308751  0.53151445  0.37055710     0.11200
C1635       C  0.37077336  0.52951917  0.34915690    -0.03200
C1636       C  0.41553343  0.54213072  0.34950331    -0.06000
C1637       C  0.43202927  0.55808016  0.37002918    -0.16700
C1638       C  0.40154782  0.56368730  0.39015019     0.02200
C1639       C  0.30035965  0.51291555  0.37365202     0.12100
C1640       C  0.35283581  0.51414434  0.32617853     0.62700
H1641       H  0.43857537  0.53874244  0.33402821     0.12200
C1642       C  0.41574247  0.58261470  0.41222849     0.54900
H1643       H  0.33497192  0.55180096  0.40591930     0.07900
C1644       C  0.30153190  0.48073087  0.37896495    -0.05900
C1645       C  0.26033441  0.46389845  0.37789274    -0.06600
C1646       C  0.21724867  0.47836676  0.37522469    -0.16200
C1647       C  0.21574164  0.51114463  0.37181692    -0.01800
C1648       C  0.25766998  0.52770490  0.37062594    -0.09300
C1649       C  0.34458764  0.46292313  0.38639781     0.65000
H1650       H  0.26211678  0.43889792  0.37940973     0.10400
C1651       C  0.17067649  0.52858628  0.36825630     0.63300
H1652       H  0.25763665  0.55246177  0.36708696     0.07800
F1653       F  0.45237069  0.56844339  0.42378913    -0.19700
F1654       F  0.38026024  0.58545282  0.42922287    -0.15900
F1655       F  0.42813035  0.61218356  0.40483878    -0.19400
F1656       F  0.31144441  0.52774556  0.31959862    -0.22800
F1657       F  0.34583906  0.48288375  0.33029550    -0.24300
F1658       F  0.38335753  0.51732839  0.30669459    -0.18300
F1659       F  0.17785562  0.55966210  0.36304910    -0.20700
F1660       F  0.14422590  0.52686657  0.38942468    -0.21900
F1661       F  0.14669827  0.51595768  0.34891650    -0.19100
F1662       F  0.38294423  0.48147803  0.38898116    -0.19200
F1663       F  0.35441625  0.44045795  0.36911753    -0.23000
F1664       F  0.33647235  0.44848781  0.40871712    -0.24600
C1665       C  0.62788857  0.53136649  0.25227186    -0.11400
C1666       C  0.62297583  0.49892319  0.25472240     0.11200
C1667       C  0.61765717  0.48602269  0.27844323    -0.03200
C1668       C  0.61322925  0.50609870  0.29860258    -0.06000
C1669       C  0.61516638  0.53861765  0.29615459    -0.16700
C1670       C  0.62445953  0.55151056  0.27275080     0.02200
C1671       C  0.61965317  0.47907592  0.23223823     0.12100
C1672       C  0.61619795  0.45111565  0.28244288     0.62700
H1673       H  0.60776159  0.49638047  0.31669382     0.12200
C1674       C  0.62903414  0.58624231  0.26942653     0.54900
H1675       H  0.63298103  0.54083920  0.23405824     0.07900
C1676       C  0.57750744  0.47579725  0.21962574    -0.05900
C1677       C  0.57603342  0.45679473  0.19869946    -0.06600
C1678       C  0.61506135  0.44070807  0.18969354    -0.16200
C1679       C  0.65660365  0.44230856  0.20343609    -0.01800
C1680       C  0.65826122  0.46197068  0.22421617    -0.09300
C1681       C  0.53409286  0.49262306  0.22810597     0.65000
H1682       H  0.54426514  0.45519207  0.18869752     0.10400
C1683       C  0.69917881  0.42369964  0.19640156     0.63300
H1684       H  0.68986749  0.46430955  0.23437127     0.07800
F1685       F  0.63661167  0.59427264  0.24513854    -0.19700
F1686       F  0.66585212  0.59687766  0.28294575    -0.15900
F1687       F  0.58906560  0.60076936  0.27737214    -0.19400
F1688       F  0.65745714  0.43807078  0.27481539    -0.22800
F1689       F  0.58056461  0.43823988  0.26926993    -0.24300
F1690       F  0.60962527  0.44345165  0.30688190    -0.18300
F1691       F  0.73430936  0.42718245  0.21320079    -0.20700
F1692       F  0.71569752  0.43331255  0.17378855    -0.21900
F1693       F  0.68815310  0.39252059  0.19555735    -0.19100
F1694       F  0.49644155  0.48554993  0.21374002    -0.19200
F1695       F  0.54086633  0.52430578  0.22691587    -0.23000
F1696       F  0.52349890  0.48431518  0.25198570    -0.24600
C1697       C  0.61415762  0.92803022  0.36822181    -0.11400
C1698       C  0.62211711  0.95946448  0.36300945     0.11200
C1699       C  0.58479651  0.97887338  0.35644186    -0.03200
C1700       C  0.54055490  0.96610398  0.35583043    -0.06000
C1701       C  0.53117032  0.93596190  0.36462222    -0.16700
C1702       C  0.56897445  0.91597106  0.36999345     0.02200
C1703       C  0.66940121  0.97222863  0.36497610     0.12100
C1704       C  0.59092142  0.01347957  0.35159432     0.62700
H1705       H  0.51223681  0.98083100  0.35027308     0.12200
C1706       C  0.56237342  0.88263876  0.37835941     0.54900
H1707       H  0.64361487  0.91345229  0.37221228     0.07900
C1708       C  0.68939860  0.97950257  0.38786104    -0.05900
C1709       C  0.72929983  0.99801841  0.38809639    -0.06600
C1710       C  0.74881561  0.00962121  0.36633850    -0.16200
C1711       C  0.73089189  0.00011091  0.34347857    -0.01800
C1712       C  0.69181358  0.98100449  0.34326158    -0.09300
C1713       C  0.66833646  0.96826891  0.41184627     0.65000
H1714       H  0.74487925  0.00436332  0.40533982     0.10400
C1715       C  0.75293188  0.00986703  0.31941981     0.63300
H1716       H  0.67667235  0.97416602  0.32602601     0.07800
F1717       F  0.54240701  0.88207620  0.40146315    -0.19700
F1718       F  0.60389361  0.86679206  0.37963526    -0.15900
F1719       F  0.53455371  0.86710511  0.36201807    -0.19400
F1720       F  0.61623317  0.01815160  0.33035111    -0.22800
F1721       F  0.61347114  0.02705858  0.37102876    -0.24300
F1722       F  0.54905027  0.02859944  0.34889540    -0.18300
F1723       F  0.73198913  0.99617678  0.29949804    -0.20700
F1724       F  0.79882538  0.00116124  0.31922499    -0.21900
F1725       F  0.74918199  0.04162300  0.31668844    -0.19100
F1726       F  0.69216119  0.97918616  0.43191480    -0.19200
F1727       F  0.66930693  0.93624027  0.41270848    -0.23000
F1728       F  0.62323259  0.97834313  0.41381436    -0.24600
C1729       C  0.08214304  0.99900125  0.38105007    -0.11400
C1730       C  0.11646606  0.01976735  0.38804575     0.11200
C1731       C  0.10487964  0.05101694  0.39309975    -0.03200
C1732       C  0.05883390  0.06068570  0.38980928    -0.06000
C1733       C  0.02424860  0.03983511  0.38260126    -0.16700
C1734       C  0.03581580  0.00797123  0.37932830     0.02200
C1735       C  0.16411552  0.00731972  0.38907151     0.12100
C1736       C  0.14031706  0.07354060  0.40297756     0.62700
H1737       H  0.04935387  0.08456561  0.39317101     0.12200
C1738       C  0.99987171  0.98272212  0.37596371     0.54900
H1739       H  0.09209086  0.97523828  0.37754403     0.07900
C1740       C  0.17636632  0.98241282  0.40481007    -0.05900
C1741       C  0.21675223  0.96556715  0.39967331    -0.06600
C1742       C  0.24710330  0.97427264  0.38069815    -0.16200
C1743       C  0.23705898  0.00131689  0.36659133    -0.01800
C1744       C  0.19450276  0.01624756  0.37030873    -0.09300
C1745       C  0.14804127  0.97243336  0.42699047     0.65000
H1746       H  0.22505057  0.94555947  0.41101967     0.10400
C1747       C  0.26996065  0.01425718  0.34729623     0.63300
H1748       H  0.18375477  0.03457769  0.35791261     0.07800
F1749       F  0.01923825  0.95332886  0.37608161    -0.19700
F1750       F  0.97772889  0.98642295  0.35390626    -0.15900
F1751       F  0.96813907  0.98385592  0.39495380    -0.19400
F1752       F  0.17480610  0.07869290  0.38584225    -0.22800
F1753       F  0.15958381  0.06139083  0.42405215    -0.24300
F1754       F  0.12073811  0.10194018  0.40872202    -0.18300
F1755       F  0.28088740  0.99160718  0.33048831    -0.20700
F1756       F  0.30973707  0.02466701  0.35836849    -0.21900
F1757       F  0.25106435  0.03903607  0.33461589    -0.19100
F1758       F  0.17610073  0.97168700  0.44737964    -0.19200
F1759       F  0.13072415  0.94301857  0.42313866    -0.23000
F1760       F  0.11171153  0.99225941  0.43205230    -0.24600
C1761       C  0.38820576  0.96827543  0.26488516    -0.11400
C1762       C  0.34533938  0.98133907  0.25892337     0.11200
C1763       C  0.30548193  0.97143634  0.27214496    -0.03200
C1764       C  0.31079917  0.95058811  0.29205517    -0.06000
C1765       C  0.35447855  0.94026601  0.29955824    -0.16700
C1766       C  0.39339002  0.94762755  0.28472079     0.02200
C1767       C  0.34311248  0.00179427  0.23664608     0.12100
C1768       C  0.25788437  0.98408582  0.26618408     0.62700
H1769       H  0.28120416  0.94425294  0.30318961     0.12200
C1770       C  0.44103180  0.93413485  0.28902342     0.54900
H1771       H  0.41811292  0.97416708  0.25376701     0.07900
C1772       C  0.35977720  0.03280545  0.23583799    -0.05900
C1773       C  0.36186672  0.04870402  0.21296294    -0.06600
C1774       C  0.34823529  0.03435944  0.19109479    -0.16200
C1775       C  0.32976405  0.00380755  0.19241180    -0.01800
C1776       C  0.32823108  0.98811306  0.21500083    -0.09300
C1777       C  0.37614728  0.04865870  0.25894454     0.65000
H1778       H  0.37614186  0.07187161  0.21183535     0.10400
C1779       C  0.31202662  0.98727581  0.16996882     0.63300
H1780       H  0.31682533  0.96421719  0.21583174     0.07800
F1781       F  0.47024762  0.95731004  0.29684663    -0.19700
F1782       F  0.45808582  0.92209298  0.26728846    -0.15900
F1783       F  0.44078761  0.91039694  0.30615685    -0.19400
F1784       F  0.24582847  0.97620756  0.24259014    -0.22800
F1785       F  0.25786739  0.01601735  0.26830347    -0.24300
F1786       F  0.22433259  0.97239886  0.28187773    -0.18300
F1787       F  0.34846711  0.98010778  0.15456673    -0.20700
F1788       F  0.28076448  0.00611139  0.15807794    -0.21900
F1789       F  0.28968482  0.95986509  0.17588671    -0.19100
F1790       F  0.38813809  0.07926393  0.25459793    -0.19200
F1791       F  0.41441213  0.03343915  0.26803549    -0.23000
F1792       F  0.34145484  0.04820415  0.27648501    -0.24600
C1793       C  0.54150170  0.72827215  0.34298505    -0.11400
C1794       C  0.49458854  0.73017082  0.34981047     0.11200
C1795       C  0.47057385  0.70256223  0.35574205    -0.03200
C1796       C  0.49544485  0.67456608  0.35736020    -0.06000
C1797       C  0.54323073  0.67304446  0.35286457    -0.16700
C1798       C  0.56638931  0.69997346  0.34437795     0.02200
C1799       C  0.47294787  0.76132266  0.35415959     0.12100
C1800       C  0.41905118  0.70287353  0.36107289     0.62700
H1801       H  0.47794223  0.65360617  0.36325123     0.12200
C1802       C  0.61737806  0.69907913  0.33806028     0.54900
H1803       H  0.55911213  0.74952731  0.33796473     0.07900
C1804       C  0.47889843  0.77675206  0.37671774    -0.05900
C1805       C  0.45451086  0.80442844  0.38107604    -0.06600
C1806       C  0.42379007  0.81765071  0.36392185    -0.16200
C1807       C  0.41858938  0.80235795  0.34099419    -0.01800
C1808       C  0.44349301  0.77446978  0.33656648    -0.09300
C1809       C  0.51025983  0.76362510  0.39649873     0.65000
H1810       H  0.45938816  0.81585110  0.39846071     0.10400
C1811       C  0.38702507  0.81498327  0.32127535     0.63300
H1812       H  0.43957555  0.76227435  0.31940589     0.07800
F1813       F  0.64227466  0.68959473  0.35826178    -0.19700
F1814       F  0.63360252  0.72787117  0.33075596    -0.15900
F1815       F  0.62492481  0.67850076  0.31906883    -0.19400
F1816       F  0.39579754  0.71309344  0.34054228    -0.22800
F1817       F  0.40919584  0.72243193  0.38043905    -0.24300
F1818       F  0.40266212  0.67365481  0.36707554    -0.18300
F1819       F  0.40129966  0.84432722  0.31429224    -0.20700
F1820       F  0.34219979  0.81628908  0.33010323    -0.21900
F1821       F  0.38727220  0.79648894  0.30059679    -0.19100
F1822       F  0.55499705  0.76151319  0.38770394    -0.19200
F1823       F  0.49527718  0.73446335  0.40349854    -0.23000
F1824       F  0.51080769  0.78207263  0.41719684    -0.24600
C1825       C  0.26455428  0.89123546  0.48355313    -0.11400
C1826       C  0.24919243  0.86091466  0.48802685     0.11200
C1827       C  0.25834727  0.83775967  0.47013325    -0.03200
C1828       C  0.28385795  0.84580978  0.44873073    -0.06000
C1829       C  0.30173838  0.87578394  0.44510846    -0.16700
C1830       C  0.29166809  0.89894779  0.46285617     0.02200
C1831       C  0.22361335  0.85489753  0.51168572     0.12100
C1832       C  0.24254078  0.80452188  0.47390014     0.62700
H1833       H  0.29138924  0.82844418  0.43499967     0.12200
C1834       C  0.31053637  0.93162586  0.46050005     0.54900
H1835       H  0.25634365  0.90878380  0.49704254     0.07900
C1836       C  0.24557778  0.85618803  0.53488897    -0.05900
C1837       C  0.21806665  0.85657390  0.55647297    -0.06600
C1838       C  0.16976288  0.85433175  0.55559028    -0.16200
C1839       C  0.14936748  0.84696834  0.53276556    -0.01800
C1840       C  0.17579082  0.84996931  0.51111001    -0.09300
C1841       C  0.29775250  0.85770066  0.53684236     0.65000
H1842       H  0.23400083  0.86037768  0.57404561     0.10400
C1843       C  0.10065004  0.83449830  0.53061545     0.63300
H1844       H  0.15873330  0.84825012  0.49357517     0.07800
F1845       F  0.35748489  0.93095433  0.46465157    -0.19700
F1846       F  0.29058219  0.95160507  0.47734642    -0.15900
F1847       F  0.30218542  0.94339581  0.43734070    -0.19400
F1848       F  0.19495102  0.80315264  0.47432417    -0.22800
F1849       F  0.25933050  0.79317922  0.49582507    -0.24300
F1850       F  0.25808659  0.78532249  0.45530139    -0.18300
F1851       F  0.10073124  0.80936071  0.51493051    -0.20700
F1852       F  0.07177582  0.85703405  0.52121568    -0.21900
F1853       F  0.08333196  0.82432376  0.55293972    -0.19100
F1854       F  0.31211116  0.85405013  0.56081936    -0.19200
F1855       F  0.31367289  0.88595834  0.52834539    -0.23000
F1856       F  0.31759745  0.83428166  0.52307118    -0.24600
C1857       C  0.50046899  0.00400092  0.45833348    -0.11400
C1858       C  0.47489344  0.00751633  0.47995088     0.11200
C1859       C  0.42601248  0.00477481  0.47935904    -0.03200
C1860       C  0.40583621  0.99319450  0.45787386    -0.06000
C1861       C  0.43298946  0.98648882  0.43719993    -0.16700
C1862       C  0.47966571  0.99546870  0.43661934     0.02200
C1863       C  0.50215650  0.01405798  0.50201074     0.12100
C1864       C  0.39408633  0.01276294  0.50058667     0.62700
H1865       H  0.36922816  0.98831593  0.45758130     0.12200
C1866       C  0.50898643  0.99385999  0.41376161     0.54900
H1867       H  0.53758133  0.00714410  0.45860313     0.07900
C1868       C  0.50475513  0.99371610  0.52250390    -0.05900
C1869       C  0.53125627  0.00296168  0.54253745    -0.06600
C1870       C  0.55898378  0.02962582  0.54143497    -0.16200
C1871       C  0.56344234  0.04587025  0.51900957    -0.01800
C1872       C  0.53192418  0.03965154  0.50057158    -0.09300
C1873       C  0.48070977  0.96252263  0.52458346     0.65000
H1874       H  0.52922056  0.98957136  0.55935590     0.10400
C1875       C  0.60111528  0.06935013  0.51369291     0.63300
H1876       H  0.53221488  0.05402052  0.48421450     0.07800
F1877       F  0.52638556  0.96420335  0.41153886    -0.19700
F1878       F  0.54538732  0.01452777  0.41484854    -0.15900
F1879       F  0.48315706  0.00176633  0.39351213    -0.19400
F1880       F  0.41690215  0.02541717  0.52027835    -0.22800
F1881       F  0.37128015  0.98631320  0.50838744    -0.24300
F1882       F  0.36176754  0.03418899  0.49274962    -0.18300
F1883       F  0.63812115  0.06547360  0.52922973    -0.20700
F1884       F  0.58359448  0.09904793  0.51600662    -0.21900
F1885       F  0.61762751  0.06551375  0.49001172    -0.19100
F1886       F  0.51236259  0.94024087  0.53173696    -0.19200
F1887       F  0.46169106  0.95268351  0.50286521    -0.23000
F1888       F  0.44626609  0.96426791  0.54222054    -0.24600
loop_ 
_geom_bond_atom_site_label_1 
_geom_bond_atom_site_label_2 
_geom_bond_distance 
_geom_bond_site_symmetry_2 
_ccdc_geom_bond_type 
O1           C16   1.254       .  A
O1           Al9   1.868       .  S
C2           O12   1.262       .  A
C2            O3   1.275       .  A
C2         C1829   1.499       .  S
O3           Al5   1.970       .  S
O4            C6   1.265       .  A
O4           Al5   1.912       .  S
Al5          O13   1.950       .  S
Al5          O15   1.964       .  S
Al5          O14   1.781       .  S
C6           O19   1.257       .  A
C6         C1742   1.485       .  S
O7           C17   1.255       .  A
O7           Al9   1.903       .  S
O8           C21   1.264       .  A
O8          Al18   1.914       .  S
Al9          O22   1.895       .  S
Al9          O19   1.892       .  S
Al9          O14   1.774       .  S
O10          C17   1.258       .  A
O10         Al18   1.904       .  S
O11          C20   1.260       .  A
O11         Al18   1.898       .  S
O12         Al18   1.893       .  S
O13          C20   1.268       .  A
O14         Al18   1.780       .  S
O15          C16   1.270       .  A
C16        C1765   1.489       .  S
C17        C1861   1.464       .  S
C20        C1806   1.515       .  S
C21          O22   1.266       .  A
C21        C1701   1.496       .  S
O23          C38   1.254       .  A
O23         Al31   1.876       .  S
C24          O34   1.255       .  A
C24          O25   1.273       .  A
C24        C1541   1.498       .  S
O25         Al27   1.981       .  S
O26          C28   1.263       .  A
O26         Al27   1.895       .  S
Al27         O35   1.938       .  S
Al27         O37   1.982       .  S
Al27         O36   1.791       .  S
C28          O41   1.269       .  A
C28        C1605   1.484       .  S
O29          C39   1.255       .  A
O29         Al31   1.892       .  S
O30          C43   1.260       .  A
O30         Al40   1.900       .  S
Al31         O44   1.925       .  S
Al31         O41   1.937       .  S
Al31         O36   1.778       .  S
O32          C39   1.257       .  A
O32         Al40   1.891       .  S
O33          C42   1.264       .  A
O33         Al40   1.908       .  S
O34         Al40   1.875       .  S
O35          C42   1.270       .  A
O36         Al40   1.778       .  S
O37          C38   1.271       .  A
C38        C1669   1.498       .  S
C39        C1573   1.462       .  S
C42        C1797   1.492       .  S
C43          O44   1.267       .  A
C43        C1637   1.487       .  S
O45          C60   1.256       .  A
O45         Al53   1.885       .  S
C46          O56   1.262       .  A
C46          O47   1.276       .  A
C46        C1486   1.495       .  S
O47         Al49   1.966       .  S
O48          C50   1.259       .  A
O48         Al49   1.896       .  S
Al49         O57   1.946       .  S
Al49         O59   1.970       .  S
Al49         O58   1.790       .  S
C50          O63   1.257       .  A
C50        C1422   1.491       .  S
O51          C61   1.253       .  A
O51         Al53   1.895       .  S
O52          C65   1.271       .  A
O52         Al62   1.914       .  S
Al53         O66   1.908       .  S
Al53         O63   1.897       .  S
Al53         O58   1.779       .  S
O54          C61   1.250       .  A
O54         Al62   1.881       .  S
O55          C64   1.254       .  A
O55         Al62   1.888       .  S
O56         Al62   1.891       .  S
O57          C64   1.265       .  A
O58         Al62   1.791       .  S
O59          C60   1.272       .  A
C60        C1774   1.500       .  S
C61        C1509   1.454       .  S
C64        C1454   1.488       .  S
C65          O66   1.265       .  A
C65        C1390   1.488       .  S
O67          C82   1.262       .  A
O67         Al75   1.878       .  S
C68          O78   1.258       .  A
C68          O69   1.272       .  A
C68        C1253   1.519       .  S
O69         Al71   1.974       .  S
O70          C72   1.264       .  A
O70         Al71   1.923       .  S
Al71         O79   1.947       .  S
Al71         O81   1.976       .  S
Al71         O80   1.793       .  S
C72          O85   1.256       .  A
C72        C1317   1.508       .  S
O73          C83   1.259       .  A
O73         Al75   1.889       .  S
O74          C87   1.261       .  A
O74         Al84   1.913       .  S
Al75         O88   1.916       .  S
Al75         O85   1.905       .  S
Al75         O80   1.785       .  S
O76          C83   1.260       .  A
O76         Al84   1.896       .  S
O77          C86   1.260       .  A
O77         Al84   1.891       .  S
O78         Al84   1.879       .  S
O79          C86   1.268       .  A
O80         Al84   1.785       .  S
O81          C82   1.275       .  A
C82        C1678   1.510       .  S
C83        C1294   1.459       .  S
C86        C1445   1.510       .  S
C87          O88   1.260       .  A
C87        C1349   1.478       .  S
O89         C104   1.261       .  A
O89         Al97   1.893       .  S
C90         O100   1.269       .  A
C90          O91   1.262       .  A
C90        C1221   1.515       .  S
O91         Al93   1.926       .  S
O92          C94   1.256       .  A
O92         Al93   1.882       .  S
Al93        O101   1.885       .  S
Al93        O103   1.926       .  S
Al93        O102   1.780       .  S
C94         O107   1.261       .  A
C94        C1189   1.474       .  S
O95         C105   1.262       .  A
O95         Al97   1.907       .  S
O96         C109   1.278       .  A
O96        Al106   1.961       .  S
Al97        O110   1.913       .  S
Al97        O107   1.924       .  S
Al97        O102   1.778       .  S
O98         C105   1.268       .  A
O98        Al106   1.935       .  S
O99         C108   1.275       .  A
O99        Al106   1.986       .  S
O100       Al106   1.944       .  S
O101        C108   1.257       .  A
O102       Al106   1.778       .  S
O103        C104   1.265       .  A
C104       C1413   1.474   1_655  S
C105       C1381   1.481       .  S
C108       C1157   1.497       .  S
C109        O110   1.266       .  A
C109       C1134   1.515       .  S
O111        C126   1.259       .  A
O111       Al119   1.889       .  S
C112        O122   1.265       .  A
C112        O113   1.266       .  A
C112       C1038   1.503       .  S
O113       Al115   1.939       .  S
O114        C116   1.247       .  A
O114       Al115   1.863       .  S
Al115       O123   1.873       .  S
Al115       O125   1.937       .  S
Al115       O124   1.778       .  S
C116        O129   1.263       .  A
C116       C1070   1.476       .  S
O117        C127   1.265       .  A
O117       Al119   1.915       .  S
O118        C131   1.283       .  A
O118       Al128   1.971       .  S
Al119       O132   1.907       .  S
Al119       O129   1.928       .  S
Al119       O124   1.774       .  S
O120        C127   1.264       .  A
O120       Al128   1.928       .  S
O121        C130   1.274       .  A
O121       Al128   1.990       .  S
O122       Al128   1.923       .  S
O123        C130   1.253       .  A
O124       Al128   1.781       .  S
O125        C126   1.268       .  A
C126       C1326   1.491   1_455  S
C127       C1358   1.492       .  S
C130       C1166   1.501       .  S
C131        O132   1.263       .  A
C131       C1102   1.518       .  S
O133        C148   1.257       .  A
O133       Al141   1.885       .  S
C134        O144   1.268       .  A
C134        O135   1.265       .  A
C134        C997   1.527       .  S
O135       Al137   1.927       .  S
O136        C138   1.255       .  A
O136       Al137   1.876       .  S
Al137       O145   1.877       .  S
Al137       O147   1.930       .  S
Al137       O146   1.783       .  S
C138        O151   1.262       .  A
C138        C965   1.457       .  S
O139        C149   1.256       .  A
O139       Al141   1.885       .  S
O140        C153   1.277       .  A
O140       Al150   1.958       .  S
Al141       O154   1.920       .  S
Al141       O151   1.916       .  S
Al141       O146   1.777       .  S
O142        C149   1.264       .  A
O142       Al150   1.931       .  S
O143        C152   1.276       .  A
O143       Al150   1.981       .  S
O144       Al150   1.956       .  S
O145        C152   1.257       .  A
O146       Al150   1.780       .  S
O147        C148   1.264       .  A
C148       C1733   1.485   1_655  S
C149       C1710   1.477       .  S
C152        C933   1.492       .  S
C153        O154   1.266       .  A
C153       C1125   1.507       .  S
O155        C170   1.264   1_455  A
O155       Al163   1.894       .  S
C156        O166   1.267       .  A
C156        O157   1.265       .  A
C156        C910   1.526       .  S
O157       Al159   1.945       .  S
O158        C160   1.251       .  A
O158       Al159   1.875       .  S
Al159       O167   1.876       .  S
Al159       O169   1.940   1_455  S
Al159       O168   1.785       .  S
C160        O173   1.260       .  A
C160        C869   1.455       .  S
O161        C171   1.263       .  A
O161       Al163   1.895       .  S
O162        C175   1.276       .  A
O162       Al172   1.967       .  S
Al163       O176   1.898       .  S
Al163       O173   1.919       .  S
Al163       O168   1.785       .  S
O164        C171   1.271       .  A
O164       Al172   1.937       .  S
O165        C174   1.277       .  A
O165       Al172   1.985       .  S
O166       Al172   1.944       .  S
O167        C174   1.255       .  A
O168       Al172   1.775       .  S
O169        C170   1.267       .  A
C170       C1614   1.494       .  S
C171       C1646   1.493       .  S
C174        C942   1.494       .  S
C175        O176   1.258       .  A
C175       C1093   1.498       .  S
O177        C192   1.260       .  A
O177       Al185   1.886       .  S
C178        O188   1.267       .  A
C178        O179   1.262       .  A
C178       C1006   1.525       .  S
O179       Al181   1.927       .  S
O180        C182   1.255       .  A
O180       Al181   1.866       .  S
Al181       O189   1.879       .  S
Al181       O191   1.911       .  S
Al181       O190   1.787       .  S
C182        O195   1.262       .  A
C182       C1870   1.471       .  S
O183        C193   1.257       .  A
O183       Al185   1.885       .  S
O184        C197   1.276       .  A
O184       Al194   1.961       .  S
Al185       O198   1.900       .  S
Al185       O195   1.909       .  S
Al185       O190   1.782       .  S
O186        C193   1.266       .  A
O186       Al194   1.932       .  S
O187        C196   1.277       .  A
O187       Al194   1.987       .  S
O188       Al194   1.951       .  S
O189        C196   1.256       .  A
O190       Al194   1.781       .  S
O191        C192   1.259       .  A
C192        C773   1.492       .  S
C193        C741   1.479       .  S
C196        C846   1.498       .  S
C197        O198   1.262       .  A
C197        C814   1.502       .  S
O199        C214   1.257       .  A
O199       Al207   1.875       .  S
C200        O210   1.266       .  A
C200        O201   1.272       .  A
C200        C901   1.530       .  S
O201       Al203   1.949       .  S
O202        C204   1.247       .  A
O202       Al203   1.869       .  S
Al203       O211   1.875       .  S
Al203       O213   1.945       .  S
Al203       O212   1.773       .  S
C204        O217   1.263       .  A
C204       C1582   1.478       .  S
O205        C215   1.262       .  A
O205       Al207   1.898       .  S
O206        C219   1.282       .  A
O206       Al216   1.981       .  S
Al207       O220   1.906       .  S
Al207       O217   1.933       .  S
Al207       O212   1.773       .  S
O208        C215   1.267       .  A
O208       Al216   1.934       .  S
O209        C218   1.274       .  A
O209       Al216   1.989       .  S
O210       Al216   1.935       .  S
O211        C218   1.251       .  A
O212       Al216   1.780       .  S
O213        C214   1.271       .  A
C214        C654   1.480       .  S
C215        C686   1.473       .  S
C218        C837   1.497       .  S
C219        O220   1.266       .  A
C219        C709   1.529       .  S
O221        C236   1.259       .  A
O221       Al229   1.890       .  S
C222        O232   1.269       .  A
C222        O223   1.264       .  A
C222       C1230   1.516       .  S
O223       Al225   1.929       .  S
O224        C226   1.253       .  A
O224       Al225   1.869       .  S
Al225       O233   1.883       .  S
Al225       O235   1.931       .  S
Al225       O234   1.780       .  S
C226        O239   1.262       .  A
C226       C1518   1.469       .  S
O227        C237   1.260       .  A
O227       Al229   1.893       .  S
O228        C241   1.278       .  A
O228       Al238   1.955       .  S
Al229       O242   1.911       .  S
Al229       O239   1.916       .  S
Al229       O234   1.774       .  S
O230        C237   1.263       .  A
O230       Al238   1.931       .  S
O231        C240   1.273       .  A
O231       Al238   1.980       .  S
O232       Al238   1.946       .  S
O233        C240   1.258       .  A
O234       Al238   1.780       .  S
O235        C236   1.264       .  A
C236        C581   1.474       .  S
C237        C549   1.492       .  S
C240        C613   1.508       .  S
C241        O242   1.267       .  A
C241        C805   1.508       .  S
O243        C258   1.263       .  A
O243       Al251   1.894       .  S
C244        O254   1.267       .  A
C244        O245   1.265       .  A
C244       C1029   1.532       .  S
O245       Al247   1.945       .  S
O246        C248   1.248       .  A
O246       Al247   1.863       .  S
Al247       O255   1.883       .  S
Al247       O257   1.950       .  S
Al247       O256   1.784       .  S
C248        O261   1.257       .  A
C248       C1285   1.452       .  S
O249        C259   1.262       .  A
O249       Al251   1.897       .  S
O250        C263   1.273       .  A
O250       Al260   1.953       .  S
Al251       O264   1.894       .  S
Al251       O261   1.915       .  S
Al251       O256   1.789       .  S
O252        C259   1.267       .  A
O252       Al260   1.929       .  S
O253        C262   1.274       .  A
O253       Al260   1.976       .  S
O254       Al260   1.942       .  S
O255        C262   1.256       .  A
O256       Al260   1.787       .  S
O257        C258   1.268       .  A
C258        C485   1.502       .  S
C259        C517   1.483       .  S
C262        C622   1.496       .  S
C263        O264   1.257       .  A
C263        C718   1.493       .  S
O265        C280   1.261       .  A
O265       Al273   1.879       .  S
C266        O276   1.258       .  A
C266        O267   1.274       .  A
C266       C1838   1.502       .  S
O267       Al269   1.965       .  S
O268        C270   1.259       .  A
O268       Al269   1.909       .  S
Al269       O277   1.944       .  S
Al269       O279   1.973       .  S
Al269       O278   1.788       .  S
C270        O283   1.255       .  A
C270        C782   1.485       .  S
O271        C281   1.256       .  A
O271       Al273   1.891       .  S
O272        C285   1.263   1_455  A
O272       Al282   1.912       .  S
Al273       O286   1.895       .  S
Al273       O283   1.883       .  S
Al273       O278   1.785       .  S
O274        C281   1.259       .  A
O274       Al282   1.896       .  S
O275        C284   1.257       .  A
O275       Al282   1.896       .  S
O276       Al282   1.878       .  S
O277        C284   1.267       .  A
O278       Al282   1.787       .  S
O279        C280   1.275       .  A
C280        C421   1.511       .  S
C281        C974   1.453       .  S
C284        C453   1.491       .  S
C285        O286   1.261   1_655  A
C285        C750   1.495       .  S
O287        C302   1.262       .  A
O287       Al295   1.875       .  S
C288        O298   1.257       .  A
C288        O289   1.276       .  A
C288       C1550   1.517       .  S
O289       Al291   1.980       .  S
O290        C292   1.260       .  A
O290       Al291   1.914       .  S
Al291       O299   1.941       .  S
Al291       O301   1.980       .  S
Al291       O300   1.785       .  S
C292        O305   1.250       .  A
C292        C645   1.500       .  S
O293        C303   1.259       .  A
O293       Al295   1.887       .  S
O294        C307   1.261       .  A
O294       Al304   1.912       .  S
Al295       O308   1.897       .  S
Al295       O305   1.890       .  S
Al295       O300   1.783       .  S
O296        C303   1.262       .  A
O296       Al304   1.902       .  S
O297        C306   1.258       .  A
O297       Al304   1.892       .  S
O298       Al304   1.872       .  S
O299        C306   1.265       .  A
O300       Al304   1.787       .  S
O301        C302   1.279       .  A
C302        C389   1.510       .  S
C303        C878   1.462       .  S
C306        C462   1.505       .  S
C307        O308   1.260       .  A
C307        C677   1.492   1_655  S
O309        C324   1.255       .  A
O309       Al317   1.865       .  S
C310        O320   1.258       .  A
C310        O311   1.278       .  A
C310       C1477   1.497       .  S
O311       Al313   1.984       .  S
O312        C314   1.258       .  A
O312       Al313   1.885       .  S
Al313       O321   1.941       .  S
Al313       O323   1.981       .  S
Al313       O322   1.789       .  S
C314        O327   1.259       .  A
C314        C590   1.474       .  S
O315        C325   1.256       .  A
O315       Al317   1.892       .  S
O316        C329   1.265       .  A
O316       Al326   1.909       .  S
Al317       O330   1.910       .  S
Al317       O327   1.908       .  S
Al317       O322   1.778       .  S
O318        C325   1.256       .  A
O318       Al326   1.891       .  S
O319        C328   1.260       .  A
O319       Al326   1.902       .  S
O320       Al326   1.878       .  S
O321        C328   1.266       .  A
O322       Al326   1.786       .  S
O323        C324   1.273       .  A
C324        C430   1.505       .  S
C325       C1198   1.457       .  S
C328        C357   1.508       .  S
C329        O330   1.263       .  A
C329        C558   1.469   1_455  S
O331        C346   1.253       .  A
O331       Al339   1.871       .  S
C332        O342   1.257       .  A
C332        O333   1.276       .  A
C332       C1262   1.502       .  S
O333       Al335   1.984       .  S
O334        C336   1.264       .  A
O334       Al335   1.907       .  S
Al335       O343   1.951       .  S
Al335       O345   1.989       .  S
Al335       O344   1.785       .  S
C336        O349   1.270       .  A
C336        C494   1.496       .  S
O337        C347   1.255       .  A
O337       Al339   1.885       .  S
O338        C351   1.261       .  A
O338       Al348   1.903       .  S
Al339       O352   1.930       .  S
Al339       O349   1.943       .  S
Al339       O344   1.774       .  S
O340        C347   1.257       .  A
O340       Al348   1.887       .  S
O341        C350   1.263       .  A
O341       Al348   1.902       .  S
O342       Al348   1.877       .  S
O343        C350   1.272       .  A
O344       Al348   1.773       .  S
O345        C346   1.273       .  A
C346        C398   1.499       .  S
C347       C1061   1.452       .  S
C350        C366   1.505       .  S
C351        O352   1.268       .  A
C351        C526   1.490   1_655  S
C353        C354   1.407       .  A
C353        C358   1.419       .  A
C353        H363   1.082       .  S
C354        C359   1.501   1_455  S
C354        C355   1.415   1_455  A
C355        C356   1.409   1_655  A
C355        C360   1.521       .  S
C356        C357   1.412       .  A
C356        H361   1.081       .  S
C357        C358   1.423       .  A
C358        C362   1.516       .  S
C359        C364   1.415   1_655  A
C359        C368   1.409       .  A
C360        F376   1.382       .  S
C360        F377   1.383       .  S
C360        F378   1.385       .  S
C362        F373   1.383       .  S
C362        F374   1.384       .  S
C362        F375   1.382       .  S
C364        C365   1.406   1_455  A
C364        C369   1.522       .  S
C365        C366   1.411       .  A
C365        H370   1.083       .  S
C366        C367   1.420       .  A
C367        C368   1.421       .  A
C367        C371   1.515       .  S
C368        H372   1.083       .  S
C369        F382   1.384       .  S
C369        F383   1.382       .  S
C369        F384   1.383       .  S
C371        F379   1.383       .  S
C371        F380   1.385       .  S
C371        F381   1.383       .  S
C385        C386   1.406       .  A
C385        C390   1.419       .  A
C385        H395   1.082       .  S
C386        C391   1.504       .  S
C386        C387   1.416       .  A
C387        C388   1.411       .  A
C387        C392   1.521       .  S
C388        C389   1.413       .  A
C388        H393   1.082       .  S
C389        C390   1.425       .  A
C390        C394   1.517       .  S
C391        C396   1.415       .  A
C391        C400   1.413       .  A
C392        F408   1.382       .  S
C392        F409   1.382       .  S
C392        F410   1.385       .  S
C394        F405   1.384       .  S
C394        F406   1.383       .  S
C394        F407   1.383       .  S
C396        C397   1.406       .  A
C396        C401   1.521       .  S
C397        C398   1.409       .  A
C397        H402   1.083       .  S
C398        C399   1.414       .  A
C399        C400   1.421       .  A
C399        C403   1.514       .  S
C400        H404   1.083       .  S
C401        F414   1.385       .  S
C401        F415   1.382       .  S
C401        F416   1.382       .  S
C403        F411   1.383       .  S
C403        F412   1.383       .  S
C403        F413   1.384       .  S
C417        C418   1.404       .  A
C417        C422   1.418       .  A
C417        H427   1.083       .  S
C418        C423   1.502   1_565  S
C418        C419   1.415       .  A
C419        C420   1.412       .  A
C419        C424   1.520   1_565  S
C420        C421   1.413       .  A
C420        H425   1.082       .  S
C421        C422   1.427       .  A
C422        C426   1.518       .  S
C423        C428   1.412   1_545  A
C423        C432   1.412       .  A
C424        F440   1.383       .  S
C424        F441   1.383       .  S
C424        F442   1.384       .  S
C426        F437   1.385       .  S
C426        F438   1.382       .  S
C426        F439   1.383       .  S
C428        C429   1.403   1_565  A
C428        C433   1.522       .  S
C429        C430   1.411       .  A
C429        H434   1.082       .  S
C430        C431   1.419       .  A
C431        C432   1.424       .  A
C431        C435   1.514       .  S
C432        H436   1.083       .  S
C433        F446   1.384       .  S
C433        F447   1.382       .  S
C433        F448   1.382       .  S
C435        F443   1.383       .  S
C435        F444   1.382       .  S
C435        F445   1.384       .  S
C449        C450   1.406       .  A
C449        C454   1.414       .  A
C449        H459   1.083       .  S
C450        C455   1.506   1_455  S
C450        C451   1.419   1_455  A
C451        C452   1.416   1_655  A
C451        C456   1.517       .  S
C452        C453   1.406       .  A
C452        H457   1.083   1_455  S
C453        C454   1.416       .  A
C454        C458   1.515       .  S
C455        C460   1.418       .  A
C455        C464   1.410       .  A
C456        F472   1.383       .  S
C456        F473   1.383       .  S
C456        F474   1.384       .  S
C458        F469   1.383       .  S
C458        F470   1.384       .  S
C458        F471   1.383       .  S
C460        C461   1.408       .  A
C460        C465   1.522       .  S
C461        C462   1.407       .  A
C461        H466   1.083       .  S
C462        C463   1.422       .  A
C463        C464   1.423       .  A
C463        C467   1.517       .  S
C464        H468   1.082       .  S
C465        F478   1.384       .  S
C465        F479   1.382   1_655  S
C465        F480   1.383       .  S
C467        F475   1.383       .  S
C467        F476   1.383       .  S
C467        F477   1.384       .  S
C481        C482   1.405       .  A
C481        C486   1.416       .  A
C481        H491   1.083       .  S
C482        C487   1.498       .  S
C482        C483   1.416       .  A
C483        C484   1.408       .  A
C483        C488   1.521       .  S
C484        C485   1.410       .  A
C484        H489   1.082       .  S
C485        C486   1.423       .  A
C486        C490   1.518       .  S
C487        C492   1.417       .  A
C487        C496   1.404       .  A
C488        F504   1.382       .  S
C488        F505   1.382       .  S
C488        F506   1.385       .  S
C490        F501   1.385       .  S
C490        F502   1.382       .  S
C490        F503   1.384       .  S
C492        C493   1.412       .  A
C492        C497   1.518       .  S
C493        C494   1.408       .  A
C493        H498   1.083       .  S
C494        C495   1.422       .  A
C495        C496   1.412       .  A
C495        C499   1.520       .  S
C496        H500   1.083       .  S
C497        F510   1.385       .  S
C497        F511   1.382       .  S
C497        F512   1.382       .  S
C499        F507   1.385       .  S
C499        F508   1.383       .  S
C499        F509   1.383       .  S
C513        C514   1.400       .  A
C513        C518   1.409       .  A
C513        H523   1.084       .  S
C514        C519   1.486       .  S
C514        C515   1.416       .  A
C515        C516   1.408       .  A
C515        C520   1.520       .  S
C516        C517   1.404       .  A
C516        H521   1.084       .  S
C517        C518   1.423       .  A
C518        C522   1.519       .  S
C519        C524   1.414       .  A
C519        C528   1.397       .  A
C520        F536   1.383       .  S
C520        F537   1.382       .  S
C520        F538   1.384       .  S
C522        F533   1.381       .  S
C522        F534   1.384       .  S
C522        F535   1.383       .  S
C524        C525   1.409       .  A
C524        C529   1.519       .  S
C525        C526   1.407       .  A
C525        H530   1.084       .  S
C526        C527   1.426       .  A
C527        C528   1.408       .  A
C527        C531   1.519       .  S
C528        H532   1.084       .  S
C529        F542   1.384       .  S
C529        F543   1.383       .  S
C529        F544   1.382       .  S
C531        F539   1.385       .  S
C531        F540   1.382       .  S
C531        F541   1.381       .  S
C545        C546   1.403   1_565  A
C545        C550   1.409       .  A
C545        H555   1.084       .  S
C546        C551   1.483       .  S
C546        C547   1.415       .  A
C547        C548   1.405       .  A
C547        C552   1.520       .  S
C548        C549   1.409   1_545  A
C548        H553   1.086       .  S
C549        C550   1.423       .  A
C550        C554   1.519       .  S
C551        C556   1.416       .  A
C551        C560   1.404       .  A
C552        F568   1.383       .  S
C552        F569   1.382       .  S
C552        F570   1.383       .  S
C554        F565   1.381       .  S
C554        F566   1.385       .  S
C554        F567   1.383       .  S
C556        C557   1.406       .  A
C556        C561   1.519       .  S
C557        C558   1.401       .  A
C557        H562   1.083       .  S
C558        C559   1.413       .  A
C559        C560   1.408       .  A
C559        C563   1.517       .  S
C560        H564   1.082       .  S
C561        F574   1.385       .  S
C561        F575   1.383   1_545  S
C561        F576   1.380       .  S
C563        F571   1.384       .  S
C563        F572   1.382   1_655  S
C563        F573   1.383       .  S
C577        C578   1.398       .  A
C577        C582   1.402       .  A
C577        H587   1.084   1_565  S
C578        C583   1.480       .  S
C578        C579   1.416       .  A
C579        C580   1.410       .  A
C579        C584   1.518       .  S
C580        C581   1.402       .  A
C580        H585   1.084       .  S
C581        C582   1.418       .  A
C582        C586   1.517   1_565  S
C583        C588   1.415       .  A
C583        C592   1.402   1_565  A
C584        F600   1.382       .  S
C584        F601   1.381       .  S
C584        F602   1.384       .  S
C586        F597   1.385       .  S
C586        F598   1.382       .  S
C586        F599   1.379   1_545  S
C588        C589   1.406   1_565  A
C588        C593   1.520       .  S
C589        C590   1.403       .  A
C589        H594   1.084       .  S
C590        C591   1.415       .  A
C591        C592   1.406       .  A
C591        C595   1.518       .  S
C592        H596   1.084       .  S
C593        F606   1.385       .  S
C593        F607   1.383       .  S
C593        F608   1.381       .  S
C595        F603   1.384       .  S
C595        F604   1.383       .  S
C595        F605   1.383       .  S
C609        C610   1.408       .  A
C609        C614   1.420       .  A
C609        H619   1.081       .  S
C610        C615   1.506       .  S
C610        C611   1.417       .  A
C611        C612   1.411       .  A
C611        C616   1.517       .  S
C612        C613   1.410       .  A
C612        H617   1.082       .  S
C613        C614   1.423       .  A
C614        C618   1.517       .  S
C615        C620   1.422       .  A
C615        C624   1.401       .  A
C616        F632   1.382       .  S
C616        F633   1.383       .  S
C616        F634   1.385       .  S
C618        F629   1.383       .  S
C618        F630   1.385       .  S
C618        F631   1.381       .  S
C620        C621   1.421       .  A
C620        C625   1.516       .  S
C621        C622   1.407       .  A
C621        H626   1.084       .  S
C622        C623   1.419       .  A
C623        C624   1.408       .  A
C623        C627   1.513       .  S
C624        H628   1.084       .  S
C625        F638   1.385       .  S
C625        F639   1.382       .  S
C625        F640   1.383       .  S
C627        F635   1.380       .  S
C627        F636   1.383       .  S
C627        F637   1.385       .  S
C641        C642   1.396       .  A
C641        C646   1.407       .  A
C641        H651   1.083       .  S
C642        C647   1.484       .  S
C642        C643   1.413       .  A
C643        C644   1.407       .  A
C643        C648   1.519       .  S
C644        C645   1.409       .  A
C644        H649   1.080       .  S
C645        C646   1.433       .  A
C646        C650   1.524       .  S
C647        C652   1.416       .  A
C647        C656   1.401       .  A
C648        F664   1.382       .  S
C648        F665   1.382       .  S
C648        F666   1.385       .  S
C650        F661   1.385       .  S
C650        F662   1.384       .  S
C650        F663   1.383       .  S
C652        C653   1.405       .  A
C652        C657   1.520       .  S
C653        C654   1.405       .  A
C653        H658   1.081       .  S
C654        C655   1.421       .  A
C655        C656   1.407       .  A
C655        C659   1.520       .  S
C656        H660   1.082       .  S
C657        F670   1.385       .  S
C657        F671   1.381       .  S
C657        F672   1.382       .  S
C659        F667   1.383       .  S
C659        F668   1.382       .  S
C659        F669   1.385       .  S
C673        C674   1.401       .  A
C673        C678   1.411       .  A
C673        H683   1.082       .  S
C674        C679   1.480       .  S
C674        C675   1.411       .  A
C675        C676   1.400       .  A
C675        C680   1.523       .  S
C676        C677   1.410       .  A
C676        H681   1.082   1_455  S
C677        C678   1.424       .  A
C678        C682   1.519       .  S
C679        C684   1.416       .  A
C679        C688   1.398       .  A
C680        F696   1.382       .  S
C680        F697   1.383       .  S
C680        F698   1.385       .  S
C682        F693   1.383       .  S
C682        F694   1.385       .  S
C682        F695   1.383       .  S
C684        C685   1.409       .  A
C684        C689   1.518       .  S
C685        C686   1.403       .  A
C685        H690   1.082       .  S
C686        C687   1.418       .  A
C687        C688   1.402       .  A
C687        C691   1.517       .  S
C688        H692   1.083       .  S
C689        F702   1.382       .  S
C689        F703   1.382       .  S
C689        F704   1.384       .  S
C691        F699   1.381       .  S
C691        F700   1.381       .  S
C691        F701   1.385       .  S
C705        C706   1.412       .  A
C705        C710   1.428       .  A
C705        H715   1.081       .  S
C706        C711   1.514       .  S
C706        C707   1.414       .  A
C707        C708   1.410       .  A
C707        C712   1.523       .  S
C708        C709   1.419       .  A
C708        H713   1.080       .  S
C709        C710   1.425       .  A
C710        C714   1.514       .  S
C711        C716   1.423       .  A
C711        C720   1.406       .  A
C712        F728   1.381       .  S
C712        F729   1.383       .  S
C712        F730   1.385       .  S
C714        F725   1.383       .  S
C714        F726   1.385       .  S
C714        F727   1.381       .  S
C716        C717   1.421       .  A
C716        C721   1.518       .  S
C717        C718   1.408       .  A
C717        H722   1.080       .  S
C718        C719   1.418       .  A
C719        C720   1.413       .  A
C719        C723   1.518       .  S
C720        H724   1.081       .  S
C721        F734   1.385       .  S
C721        F735   1.382       .  S
C721        F736   1.383       .  S
C723        F731   1.384       .  S
C723        F732   1.382       .  S
C723        F733   1.383       .  S
C737        C738   1.401       .  A
C737        C742   1.405   1_565  A
C737        H747   1.080       .  S
C738        C743   1.478       .  S
C738        C739   1.414       .  A
C739        C740   1.405   1_565  A
C739        C744   1.519       .  S
C740        C741   1.404       .  A
C740        H745   1.076       .  S
C741        C742   1.418       .  A
C742        C746   1.516       .  S
C743        C748   1.413       .  A
C743        C752   1.402       .  A
C744        F760   1.382       .  S
C744        F761   1.383       .  S
C744        F762   1.385       .  S
C746        F757   1.385       .  S
C746        F758   1.383       .  S
C746        F759   1.381       .  S
C748        C749   1.397       .  A
C748        C753   1.524   1_565  S
C749        C750   1.411       .  A
C749        H754   1.084       .  S
C750        C751   1.424       .  A
C751        C752   1.411       .  A
C751        C755   1.519       .  S
C752        H756   1.083       .  S
C753        F766   1.383       .  S
C753        F767   1.382       .  S
C753        F768   1.381       .  S
C755        F763   1.385       .  S
C755        F764   1.383       .  S
C755        F765   1.383       .  S
C769        C770   1.397       .  A
C769        C774   1.407       .  A
C769        H779   1.083       .  S
C770        C775   1.476       .  S
C770        C771   1.411       .  A
C771        C772   1.401       .  A
C771        C776   1.522   1_545  S
C772        C773   1.409       .  A
C772        H777   1.081       .  S
C773        C774   1.429       .  A
C774        C778   1.522       .  S
C775        C780   1.409       .  A
C775        C784   1.400   1_545  A
C776        F792   1.382       .  S
C776        F793   1.382       .  S
C776        F794   1.384       .  S
C778        F789   1.385       .  S
C778        F790   1.384       .  S
C778        F791   1.384       .  S
C780        C781   1.403   1_545  A
C780        C785   1.520       .  S
C781        C782   1.410       .  A
C781        H786   1.083   1_565  S
C782        C783   1.419       .  A
C783        C784   1.405       .  A
C783        C787   1.515       .  S
C784        H788   1.084       .  S
C785        F798   1.384       .  S
C785        F799   1.383       .  S
C785        F800   1.382       .  S
C787        F795   1.384       .  S
C787        F796   1.384       .  S
C787        F797   1.382       .  S
C801        C802   1.411       .  A
C801        C806   1.423       .  A
C801        H811   1.083       .  S
C802        C807   1.510   1_565  S
C802        C803   1.417   1_565  A
C803        C804   1.410   1_545  A
C803        C808   1.521       .  S
C804        C805   1.410       .  A
C804        H809   1.083       .  S
C805        C806   1.421       .  A
C806        C810   1.516       .  S
C807        C812   1.423       .  A
C807        C816   1.401       .  A
C808        F824   1.382       .  S
C808        F825   1.383       .  S
C808        F826   1.384       .  S
C810        F821   1.384       .  S
C810        F822   1.383       .  S
C810        F823   1.383       .  S
C812        C813   1.423       .  A
C812        C817   1.517       .  S
C813        C814   1.407       .  A
C813        H818   1.082       .  S
C814        C815   1.422       .  A
C815        C816   1.409       .  A
C815        C819   1.514       .  S
C816        H820   1.084   1_545  S
C817        F830   1.384       .  S
C817        F831   1.382       .  S
C817        F832   1.383       .  S
C819        F827   1.382       .  S
C819        F828   1.383       .  S
C819        F829   1.384       .  S
C833        C834   1.406       .  A
C833        C838   1.417       .  A
C833        H843   1.085       .  S
C834        C839   1.511       .  S
C834        C835   1.422       .  A
C835        C836   1.417       .  A
C835        C840   1.519       .  S
C836        C837   1.405       .  A
C836        H841   1.086       .  S
C837        C838   1.419       .  A
C838        C842   1.515       .  S
C839        C844   1.422       .  A
C839        C848   1.406       .  A
C840        F856   1.382       .  S
C840        F857   1.382       .  S
C840        F858   1.385       .  S
C842        F853   1.382       .  S
C842        F854   1.385       .  S
C842        F855   1.382       .  S
C844        C845   1.418       .  A
C844        C849   1.519       .  S
C845        C846   1.405       .  A
C845        H850   1.084       .  S
C846        C847   1.420       .  A
C847        C848   1.418       .  A
C847        C851   1.518       .  S
C848        H852   1.084       .  S
C849        F862   1.384       .  S
C849        F863   1.382       .  S
C849        F864   1.382       .  S
C851        F859   1.384       .  S
C851        F860   1.384       .  S
C851        F861   1.382       .  S
C865        C866   1.406   1_455  A
C865        C870   1.401       .  A
C865        H875   1.083       .  S
C866        C871   1.465       .  S
C866        C867   1.413       .  A
C867        C868   1.396       .  A
C867        C872   1.520       .  S
C868        C869   1.402   1_655  A
C868        H873   1.082       .  S
C869        C870   1.407       .  A
C870        C874   1.516       .  S
C871        C876   1.413       .  A
C871        C880   1.398       .  A
C872        F888   1.382       .  S
C872        F889   1.382       .  S
C872        F890   1.383       .  S
C874        F885   1.385       .  S
C874        F886   1.383       .  S
C874        F887   1.382       .  S
C876        C877   1.402       .  A
C876        C881   1.518       .  S
C877        C878   1.403       .  A
C877        H882   1.084       .  S
C878        C879   1.414       .  A
C879        C880   1.394       .  A
C879        C883   1.514       .  S
C880        H884   1.085       .  S
C881        F894   1.385       .  S
C881        F895   1.382       .  S
C881        F896   1.383       .  S
C883        F891   1.385       .  S
C883        F892   1.382       .  S
C883        F893   1.381       .  S
C897        C898   1.408       .  A
C897        C902   1.425       .  A
C897        H907   1.085       .  S
C898        C903   1.525       .  S
C898        C899   1.422       .  A
C899        C900   1.420       .  A
C899        C904   1.520       .  S
C900        C901   1.413       .  A
C900        H905   1.085       .  S
C901        C902   1.431       .  A
C902        C906   1.518       .  S
C903        C908   1.425       .  A
C903        C912   1.402       .  A
C904        F920   1.382       .  S
C904        F921   1.383       .  S
C904        F922   1.384       .  S
C906        F917   1.384       .  S
C906        F918   1.385       .  S
C906        F919   1.382       .  S
C908        C909   1.428       .  A
C908        C913   1.516       .  S
C909        C910   1.411       .  A
C909        H914   1.084       .  S
C910        C911   1.427       .  A
C911        C912   1.417       .  A
C911        C915   1.509       .  S
C912        H916   1.084       .  S
C913        F926   1.384       .  S
C913        F927   1.381       .  S
C913        F928   1.383       .  S
C915        F923   1.382       .  S
C915        F924   1.378       .  S
C915        F925   1.384       .  S
C929        C930   1.405       .  A
C929        C934   1.414       .  A
C929        H939   1.085   1_655  S
C930        C935   1.507       .  S
C930        C931   1.422       .  A
C931        C932   1.416       .  A
C931        C936   1.518       .  S
C932        C933   1.404       .  A
C932        H937   1.085       .  S
C933        C934   1.419       .  A
C934        C938   1.518       .  S
C935        C940   1.421   1_655  A
C935        C944   1.404       .  A
C936        F952   1.382       .  S
C936        F953   1.382       .  S
C936        F954   1.385       .  S
C938        F949   1.382   1_655  S
C938        F950   1.384   1_655  S
C938        F951   1.384       .  S
C940        C941   1.416       .  A
C940        C945   1.519       .  S
C941        C942   1.405       .  A
C941        H946   1.085       .  S
C942        C943   1.423       .  A
C943        C944   1.414   1_455  A
C943        C947   1.517   1_455  S
C944        H948   1.086       .  S
C945        F958   1.384       .  S
C945        F959   1.382       .  S
C945        F960   1.383       .  S
C947        F955   1.384   1_655  S
C947        F956   1.382   1_655  S
C947        F957   1.383       .  S
C961        C962   1.406   1_565  A
C961        C966   1.405   1_565  A
C961        H971   1.085       .  S
C962        C967   1.467   1_645  S
C962        C963   1.411       .  A
C963        C964   1.394       .  A
C963        C968   1.522   1_655  S
C964        C965   1.402       .  A
C964        H969   1.085       .  S
C965        C966   1.407       .  A
C966        C970   1.515   1_545  S
C967        C972   1.413   1_465  A
C967        C976   1.403       .  A
C968        F984   1.381       .  S
C968        F985   1.382       .  S
C968        F986   1.385       .  S
C970        F981   1.384       .  S
C970        F982   1.382       .  S
C970        F983   1.384   1_565  S
C972        C973   1.398   1_645  A
C972        C977   1.520       .  S
C973        C974   1.399       .  A
C973        H978   1.081       .  S
C974        C975   1.409       .  A
C975        C976   1.403       .  A
C975        C979   1.515       .  S
C976        H980   1.081       .  S
C977        F990   1.382       .  S
C977        F991   1.382       .  S
C977        F992   1.382       .  S
C979        F987   1.385       .  S
C979        F988   1.378       .  S
C979        F989   1.383       .  S
C993        C994   1.409       .  A
C993        C998   1.425       .  A
C993       H1003   1.081       .  S
C994        C999   1.519       .  S
C994        C995   1.418       .  A
C995        C996   1.417       .  A
C995       C1000   1.519       .  S
C996        C997   1.415       .  A
C996       H1001   1.081       .  S
C997        C998   1.429       .  A
C998       C1002   1.518       .  S
C999       C1004   1.421       .  A
C999       C1008   1.404       .  A
C1000      F1016   1.382       .  S
C1000      F1017   1.383       .  S
C1000      F1018   1.385       .  S
C1002      F1013   1.384       .  S
C1002      F1014   1.385       .  S
C1002      F1015   1.382       .  S
C1004      C1005   1.422       .  A
C1004      C1009   1.518       .  S
C1005      C1006   1.413       .  A
C1005      H1010   1.082       .  S
C1006      C1007   1.429       .  A
C1007      C1008   1.419       .  A
C1007      C1011   1.513       .  S
C1008      H1012   1.083       .  S
C1009      F1022   1.384       .  S
C1009      F1023   1.382       .  S
C1009      F1024   1.383       .  S
C1011      F1019   1.385       .  S
C1011      F1020   1.379       .  S
C1011      F1021   1.383       .  S
C1025      C1026   1.398       .  A
C1025      C1030   1.417       .  A
C1025      H1035   1.083   1_556  S
C1026      C1031   1.513   1_556  S
C1026      C1027   1.418       .  A
C1027      C1028   1.424       .  A
C1027      C1032   1.519       .  S
C1028      C1029   1.417       .  A
C1028      H1033   1.082       .  S
C1029      C1030   1.437       .  A
C1030      C1034   1.518       .  S
C1031      C1036   1.420       .  A
C1031      C1040   1.411       .  A
C1032      F1048   1.383       .  S
C1032      F1049   1.382       .  S
C1032      F1050   1.384       .  S
C1034      F1045   1.378       .  S
C1034      F1046   1.385       .  S
C1034      F1047   1.379       .  S
C1036      C1037   1.414       .  A
C1036      C1041   1.520       .  S
C1037      C1038   1.406       .  A
C1037      H1042   1.083       .  S
C1038      C1039   1.418       .  A
C1039      C1040   1.424       .  A
C1039      C1043   1.515       .  S
C1040      H1044   1.082       .  S
C1041      F1054   1.385       .  S
C1041      F1055   1.382       .  S
C1041      F1056   1.381   1_554  S
C1043      F1051   1.384       .  S
C1043      F1052   1.384       .  S
C1043      F1053   1.382       .  S
C1057      C1058   1.400       .  A
C1057      C1062   1.397       .  A
C1057      H1067   1.084   1_655  S
C1058      C1063   1.465   1_655  S
C1058      C1059   1.417       .  A
C1059      C1060   1.397       .  A
C1059      C1064   1.519   1_556  S
C1060      C1061   1.399       .  A
C1060      H1065   1.086       .  S
C1061      C1062   1.413       .  A
C1062      C1066   1.517       .  S
C1063      C1068   1.413   1_556  A
C1063      C1072   1.391   1_456  A
C1064      F1080   1.382       .  S
C1064      F1081   1.384       .  S
C1064      F1082   1.383       .  S
C1066      F1077   1.385   1_655  S
C1066      F1078   1.383       .  S
C1066      F1079   1.379   1_655  S
C1068      C1069   1.403       .  A
C1068      C1073   1.519   1_554  S
C1069      C1070   1.404       .  A
C1069      H1074   1.083       .  S
C1070      C1071   1.429       .  A
C1071      C1072   1.397   1_455  A
C1071      C1075   1.523       .  S
C1072      H1076   1.084   1_554  S
C1073      F1086   1.384   1_556  S
C1073      F1087   1.384       .  S
C1073      F1088   1.380       .  S
C1075      F1083   1.383       .  S
C1075      F1084   1.380   1_455  S
C1075      F1085   1.385   1_455  S
C1089      C1090   1.406       .  A
C1089      C1094   1.416       .  A
C1089      H1099   1.084       .  S
C1090      C1095   1.509       .  S
C1090      C1091   1.421       .  A
C1091      C1092   1.419       .  A
C1091      C1096   1.519       .  S
C1092      C1093   1.407       .  A
C1092      H1097   1.084       .  S
C1093      C1094   1.420       .  A
C1094      C1098   1.514       .  S
C1095      C1100   1.422       .  A
C1095      C1104   1.395       .  A
C1096      F1112   1.383       .  S
C1096      F1113   1.380       .  S
C1096      F1114   1.385   1_455  S
C1098      F1109   1.379       .  S
C1098      F1110   1.385       .  S
C1098      F1111   1.383       .  S
C1100      C1101   1.424       .  A
C1100      C1105   1.517       .  S
C1101      C1102   1.410       .  A
C1101      H1106   1.085       .  S
C1102      C1103   1.437       .  A
C1103      C1104   1.410       .  A
C1103      C1107   1.523       .  S
C1104      H1108   1.086       .  S
C1105      F1118   1.385       .  S
C1105      F1119   1.383       .  S
C1105      F1120   1.380       .  S
C1107      F1115   1.382       .  S
C1107      F1116   1.383       .  S
C1107      F1117   1.385       .  S
C1121      C1122   1.401       .  A
C1121      C1126   1.410       .  A
C1121      H1131   1.084   1_545  S
C1122      C1127   1.513   1_545  S
C1122      C1123   1.423       .  A
C1123      C1124   1.423       .  A
C1123      C1128   1.516       .  S
C1124      C1125   1.408       .  A
C1124      H1129   1.080       .  S
C1125      C1126   1.423       .  A
C1126      C1130   1.513       .  S
C1127      C1132   1.418   1_565  A
C1127      C1136   1.411       .  A
C1128      F1144   1.382       .  S
C1128      F1145   1.382       .  S
C1128      F1146   1.385       .  S
C1130      F1141   1.384       .  S
C1130      F1142   1.381   1_545  S
C1130      F1143   1.380       .  S
C1132      C1133   1.412   1_545  A
C1132      C1137   1.522       .  S
C1133      C1134   1.413       .  A
C1133      H1138   1.082       .  S
C1134      C1135   1.423       .  A
C1135      C1136   1.425       .  A
C1135      C1139   1.516       .  S
C1136      H1140   1.082       .  S
C1137      F1150   1.384       .  S
C1137      F1151   1.381       .  S
C1137      F1152   1.383       .  S
C1139      F1147   1.384       .  S
C1139      F1148   1.382       .  S
C1139      F1149   1.384       .  S
C1153      C1154   1.410       .  A
C1153      C1158   1.421       .  A
C1153      H1163   1.083       .  S
C1154      C1159   1.510   1_655  S
C1154      C1155   1.420       .  A
C1155      C1156   1.413       .  A
C1155      C1160   1.520       .  S
C1156      C1157   1.404       .  A
C1156      H1161   1.083       .  S
C1157      C1158   1.417       .  A
C1158      C1162   1.514       .  S
C1159      C1164   1.422       .  A
C1159      C1168   1.404   1_455  A
C1160      F1176   1.382       .  S
C1160      F1177   1.382   1_655  S
C1160      F1178   1.385       .  S
C1162      F1173   1.381       .  S
C1162      F1174   1.384       .  S
C1162      F1175   1.383       .  S
C1164      C1165   1.421       .  A
C1164      C1169   1.517       .  S
C1165      C1166   1.408       .  A
C1165      H1170   1.083       .  S
C1166      C1167   1.422       .  A
C1167      C1168   1.413   1_455  A
C1167      C1171   1.517   1_455  S
C1168      H1172   1.084       .  S
C1169      F1182   1.384       .  S
C1169      F1183   1.383       .  S
C1169      F1184   1.382       .  S
C1171      F1179   1.384       .  S
C1171      F1180   1.384   1_655  S
C1171      F1181   1.383       .  S
C1185      C1186   1.403   1_554  A
C1185      C1190   1.404       .  A
C1185      H1195   1.084   1_564  S
C1186      C1191   1.471   1_655  S
C1186      C1187   1.410   1_656  A
C1187      C1188   1.400   1_455  A
C1187      C1192   1.520   1_554  S
C1188      C1189   1.407       .  A
C1188      H1193   1.084       .  S
C1189      C1190   1.415       .  A
C1190      C1194   1.515   1_565  S
C1191      C1196   1.417       .  A
C1191      C1200   1.404       .  A
C1192      F1208   1.382       .  S
C1192      F1209   1.380       .  S
C1192      F1210   1.384   1_556  S
C1194      F1205   1.385       .  S
C1194      F1206   1.382       .  S
C1194      F1207   1.380   1_545  S
C1196      C1197   1.399       .  A
C1196      C1201   1.519   1_455  S
C1197      C1198   1.400   1_565  A
C1197      H1202   1.086       .  S
C1198      C1199   1.409       .  A
C1199      C1200   1.400   1_545  A
C1199      C1203   1.517       .  S
C1200      H1204   1.081   1_566  S
C1201      F1214   1.383       .  S
C1201      F1215   1.381       .  S
C1201      F1216   1.383   1_655  S
C1203      F1211   1.385       .  S
C1203      F1212   1.382       .  S
C1203      F1213   1.383       .  S
C1217      C1218   1.403       .  A
C1217      C1222   1.418       .  A
C1217      H1227   1.083   1_554  S
C1218      C1223   1.510   1_554  S
C1218      C1219   1.419       .  A
C1219      C1220   1.418       .  A
C1219      C1224   1.519       .  S
C1220      C1221   1.410       .  A
C1220      H1225   1.081       .  S
C1221      C1222   1.429       .  A
C1222      C1226   1.519       .  S
C1223      C1228   1.418       .  A
C1223      C1232   1.403       .  A
C1224      F1240   1.382       .  S
C1224      F1241   1.382       .  S
C1224      F1242   1.384       .  S
C1226      F1237   1.382       .  S
C1226      F1238   1.385       .  S
C1226      F1239   1.384       .  S
C1228      C1229   1.418       .  A
C1228      C1233   1.520       .  S
C1229      C1230   1.412       .  A
C1229      H1234   1.079       .  S
C1230      C1231   1.428       .  A
C1231      C1232   1.419       .  A
C1231      C1235   1.517       .  S
C1232      H1236   1.081       .  S
C1233      F1246   1.384       .  S
C1233      F1247   1.383       .  S
C1233      F1248   1.382       .  S
C1235      F1243   1.385       .  S
C1235      F1244   1.382       .  S
C1235      F1245   1.382       .  S
C1249      C1250   1.409       .  A
C1249      C1254   1.422       .  A
C1249      H1259   1.083       .  S
C1250      C1255   1.508   1_554  S
C1250      C1251   1.414       .  A
C1251      C1252   1.412       .  A
C1251      C1256   1.520   1_554  S
C1252      C1253   1.414       .  A
C1252      H1257   1.080       .  S
C1253      C1254   1.424       .  A
C1254      C1258   1.515       .  S
C1255      C1260   1.418       .  A
C1255      C1264   1.410       .  A
C1256      F1272   1.382       .  S
C1256      F1273   1.383       .  S
C1256      F1274   1.384       .  S
C1258      F1269   1.385       .  S
C1258      F1270   1.384       .  S
C1258      F1271   1.380       .  S
C1260      C1261   1.410       .  A
C1260      C1265   1.521       .  S
C1261      C1262   1.408       .  A
C1261      H1266   1.082       .  S
C1262      C1263   1.419       .  A
C1263      C1264   1.421       .  A
C1263      C1267   1.516       .  S
C1264      H1268   1.081       .  S
C1265      F1278   1.385       .  S
C1265      F1279   1.382   1_556  S
C1265      F1280   1.382       .  S
C1267      F1275   1.384       .  S
C1267      F1276   1.383       .  S
C1267      F1277   1.383       .  S
C1281      C1282   1.405       .  A
C1281      C1286   1.401       .  A
C1281      H1291   1.084       .  S
C1282      C1287   1.468   1_556  S
C1282      C1283   1.414       .  A
C1283      C1284   1.398       .  A
C1283      C1288   1.521       .  S
C1284      C1285   1.401       .  A
C1284      H1289   1.084       .  S
C1285      C1286   1.405       .  A
C1286      C1290   1.514       .  S
C1287      C1292   1.416       .  A
C1287      C1296   1.397       .  A
C1288      F1304   1.382       .  S
C1288      F1305   1.382       .  S
C1288      F1306   1.385       .  S
C1290      F1301   1.384       .  S
C1290      F1302   1.383       .  S
C1290      F1303   1.384       .  S
C1292      C1293   1.403       .  A
C1292      C1297   1.519       .  S
C1293      C1294   1.400       .  A
C1293      H1298   1.083       .  S
C1294      C1295   1.412       .  A
C1295      C1296   1.396       .  A
C1295      C1299   1.511       .  S
C1296      H1300   1.083   1_554  S
C1297      F1310   1.385       .  S
C1297      F1311   1.382       .  S
C1297      F1312   1.382       .  S
C1299      F1307   1.380       .  S
C1299      F1308   1.384       .  S
C1299      F1309   1.384   1_554  S
C1313      C1314   1.397       .  A
C1313      C1318   1.411       .  A
C1313      H1323   1.084       .  S
C1314      C1319   1.492       .  S
C1314      C1315   1.415       .  A
C1315      C1316   1.410       .  A
C1315      C1320   1.519       .  S
C1316      C1317   1.409       .  A
C1316      H1321   1.086       .  S
C1317      C1318   1.434       .  A
C1318      C1322   1.523       .  S
C1319      C1324   1.416       .  A
C1319      C1328   1.402       .  A
C1320      F1336   1.382       .  S
C1320      F1337   1.383       .  S
C1320      F1338   1.384       .  S
C1322      F1333   1.384       .  S
C1322      F1334   1.385       .  S
C1322      F1335   1.384       .  S
C1324      C1325   1.409       .  A
C1324      C1329   1.519       .  S
C1325      C1326   1.407       .  A
C1325      H1330   1.082       .  S
C1326      C1327   1.422       .  A
C1327      C1328   1.410       .  A
C1327      C1331   1.520       .  S
C1328      H1332   1.082       .  S
C1329      F1342   1.385       .  S
C1329      F1343   1.383       .  S
C1329      F1344   1.382       .  S
C1331      F1339   1.385       .  S
C1331      F1340   1.384       .  S
C1331      F1341   1.382   1_655  S
C1345      C1346   1.407       .  A
C1345      C1350   1.412       .  A
C1345      H1355   1.083       .  S
C1346      C1351   1.493       .  S
C1346      C1347   1.419       .  A
C1347      C1348   1.408       .  A
C1347      C1352   1.520       .  S
C1348      C1349   1.402       .  A
C1348      H1353   1.084       .  S
C1349      C1350   1.412       .  A
C1350      C1354   1.514       .  S
C1351      C1356   1.416       .  A
C1351      C1360   1.402       .  A
C1352      F1368   1.382       .  S
C1352      F1369   1.382       .  S
C1352      F1370   1.385       .  S
C1354      F1365   1.385       .  S
C1354      F1366   1.382       .  S
C1354      F1367   1.383       .  S
C1356      C1357   1.412       .  A
C1356      C1361   1.518       .  S
C1357      C1358   1.407       .  A
C1357      H1362   1.084       .  S
C1358      C1359   1.422       .  A
C1359      C1360   1.408       .  A
C1359      C1363   1.519       .  S
C1360      H1364   1.085       .  S
C1361      F1374   1.385       .  S
C1361      F1375   1.382       .  S
C1361      F1376   1.382       .  S
C1363      F1371   1.385       .  S
C1363      F1372   1.382       .  S
C1363      F1373   1.381       .  S
C1377      C1378   1.405       .  A
C1377      C1382   1.410   1_545  A
C1377      H1387   1.083       .  S
C1378      C1383   1.486       .  S
C1378      C1379   1.415       .  A
C1379      C1380   1.405   1_545  A
C1379      C1384   1.519       .  S
C1380      C1381   1.403       .  A
C1380      H1385   1.084       .  S
C1381      C1382   1.416       .  A
C1382      C1386   1.513       .  S
C1383      C1388   1.418       .  A
C1383      C1392   1.400       .  A
C1384      F1400   1.381       .  S
C1384      F1401   1.384       .  S
C1384      F1402   1.384       .  S
C1386      F1397   1.380       .  S
C1386      F1398   1.384       .  S
C1386      F1399   1.379       .  S
C1388      C1389   1.408       .  A
C1388      C1393   1.517       .  S
C1389      C1390   1.407       .  A
C1389      H1394   1.081       .  S
C1390      C1391   1.423       .  A
C1391      C1392   1.403       .  A
C1391      C1395   1.521   1_545  S
C1392      H1396   1.081   1_545  S
C1393      F1406   1.384       .  S
C1393      F1407   1.383       .  S
C1393      F1408   1.381       .  S
C1395      F1403   1.385       .  S
C1395      F1404   1.383       .  S
C1395      F1405   1.384   1_565  S
C1409      C1410   1.402       .  A
C1409      C1414   1.405       .  A
C1409      H1419   1.085       .  S
C1410      C1415   1.482       .  S
C1410      C1411   1.415       .  A
C1411      C1412   1.405       .  A
C1411      C1416   1.519       .  S
C1412      C1413   1.404       .  A
C1412      H1417   1.086       .  S
C1413      C1414   1.414       .  A
C1414      C1418   1.515       .  S
C1415      C1420   1.414   1_565  A
C1415      C1424   1.398       .  A
C1416      F1432   1.382       .  S
C1416      F1433   1.383   1_565  S
C1416      F1434   1.382       .  S
C1418      F1429   1.382   1_455  S
C1418      F1430   1.384       .  S
C1418      F1431   1.381       .  S
C1420      C1421   1.404       .  A
C1420      C1425   1.520       .  S
C1421      C1422   1.407       .  A
C1421      H1426   1.084       .  S
C1422      C1423   1.426   1_545  A
C1423      C1424   1.407       .  A
C1423      C1427   1.520       .  S
C1424      H1428   1.085       .  S
C1425      F1438   1.384       .  S
C1425      F1439   1.382       .  S
C1425      F1440   1.383       .  S
C1427      F1435   1.381       .  S
C1427      F1436   1.382       .  S
C1427      F1437   1.385       .  S
C1441      C1442   1.408       .  A
C1441      C1446   1.423       .  A
C1441      H1451   1.082       .  S
C1442      C1447   1.502       .  S
C1442      C1443   1.416       .  A
C1443      C1444   1.407       .  A
C1443      C1448   1.523       .  S
C1444      C1445   1.411       .  A
C1444      H1449   1.082       .  S
C1445      C1446   1.424       .  A
C1446      C1450   1.517       .  S
C1447      C1452   1.416       .  A
C1447      C1456   1.409       .  A
C1448      F1464   1.382       .  S
C1448      F1465   1.382       .  S
C1448      F1466   1.384       .  S
C1450      F1461   1.385       .  S
C1450      F1462   1.383       .  S
C1450      F1463   1.383       .  S
C1452      C1453   1.410       .  A
C1452      C1457   1.518       .  S
C1453      C1454   1.406       .  A
C1453      H1458   1.084       .  S
C1454      C1455   1.415       .  A
C1455      C1456   1.416       .  A
C1455      C1459   1.515       .  S
C1456      H1460   1.084       .  S
C1457      F1470   1.385       .  S
C1457      F1471   1.382       .  S
C1457      F1472   1.382       .  S
C1459      F1467   1.385       .  S
C1459      F1468   1.383       .  S
C1459      F1469   1.383       .  S
C1473      C1474   1.403       .  A
C1473      C1478   1.413       .  A
C1473      H1483   1.083       .  S
C1474      C1479   1.506   1_556  S
C1474      C1475   1.420       .  A
C1475      C1476   1.418       .  A
C1475      C1480   1.517       .  S
C1476      C1477   1.406       .  A
C1476      H1481   1.083       .  S
C1477      C1478   1.421       .  A
C1478      C1482   1.514       .  S
C1479      C1484   1.421       .  A
C1479      C1488   1.406       .  A
C1480      F1496   1.382       .  S
C1480      F1497   1.382   1_556  S
C1480      F1498   1.384       .  S
C1482      F1493   1.385       .  S
C1482      F1494   1.381       .  S
C1482      F1495   1.382       .  S
C1484      C1485   1.415       .  A
C1484      C1489   1.520       .  S
C1485      C1486   1.405       .  A
C1485      H1490   1.083       .  S
C1486      C1487   1.418       .  A
C1487      C1488   1.416       .  A
C1487      C1491   1.517       .  S
C1488      H1492   1.082   1_554  S
C1489      F1502   1.385       .  S
C1489      F1503   1.382       .  S
C1489      F1504   1.382       .  S
C1491      F1499   1.382       .  S
C1491      F1500   1.383       .  S
C1491      F1501   1.384       .  S
C1505      C1506   1.405   1_545  A
C1505      C1510   1.402       .  A
C1505      H1515   1.084   1_554  S
C1506      C1511   1.470   1_554  S
C1506      C1507   1.412       .  A
C1507      C1508   1.401   1_565  A
C1507      C1512   1.520       .  S
C1508      C1509   1.402       .  A
C1508      H1513   1.085       .  S
C1509      C1510   1.407       .  A
C1510      C1514   1.517       .  S
C1511      C1516   1.411       .  A
C1511      C1520   1.403       .  A
C1512      F1528   1.382       .  S
C1512      F1529   1.382       .  S
C1512      F1530   1.384       .  S
C1514      F1525   1.382       .  S
C1514      F1526   1.384   1_554  S
C1514      F1527   1.383       .  S
C1516      C1517   1.397       .  A
C1516      C1521   1.522   1_556  S
C1517      C1518   1.405       .  A
C1517      H1522   1.083       .  S
C1518      C1519   1.413       .  A
C1519      C1520   1.404       .  A
C1519      C1523   1.516   1_565  S
C1520      H1524   1.084   1_565  S
C1521      F1534   1.385   1_554  S
C1521      F1535   1.382   1_554  S
C1521      F1536   1.382       .  S
C1523      F1531   1.382       .  S
C1523      F1532   1.384   1_545  S
C1523      F1533   1.385       .  S
C1537      C1538   1.411       .  A
C1537      C1542   1.422       .  A
C1537      H1547   1.084       .  S
C1538      C1543   1.509       .  S
C1538      C1539   1.420       .  A
C1539      C1540   1.408       .  A
C1539      C1544   1.521       .  S
C1540      C1541   1.404       .  A
C1540      H1545   1.084       .  S
C1541      C1542   1.418       .  A
C1542      C1546   1.515       .  S
C1543      C1548   1.416       .  A
C1543      C1552   1.406       .  A
C1544      F1560   1.381       .  S
C1544      F1561   1.382       .  S
C1544      F1562   1.385       .  S
C1546      F1557   1.383       .  S
C1546      F1558   1.384       .  S
C1546      F1559   1.384       .  S
C1548      C1549   1.414       .  A
C1548      C1553   1.519       .  S
C1549      C1550   1.415       .  A
C1549      H1554   1.082       .  S
C1550      C1551   1.424       .  A
C1551      C1552   1.419       .  A
C1551      C1555   1.512       .  S
C1552      H1556   1.083       .  S
C1553      F1566   1.384       .  S
C1553      F1567   1.382       .  S
C1553      F1568   1.383       .  S
C1555      F1563   1.385       .  S
C1555      F1564   1.383       .  S
C1555      F1565   1.378       .  S
C1569      C1570   1.400       .  A
C1569      C1574   1.400       .  A
C1569      H1579   1.085       .  S
C1570      C1575   1.471       .  S
C1570      C1571   1.418       .  A
C1571      C1572   1.400       .  A
C1571      C1576   1.519       .  S
C1572      C1573   1.400       .  A
C1572      H1577   1.086       .  S
C1573      C1574   1.415       .  A
C1574      C1578   1.516       .  S
C1575      C1580   1.413       .  A
C1575      C1584   1.392       .  A
C1576      F1592   1.381       .  S
C1576      F1593   1.383       .  S
C1576      F1594   1.384       .  S
C1578      F1589   1.378       .  S
C1578      F1590   1.385       .  S
C1578      F1591   1.383       .  S
C1580      C1581   1.405       .  A
C1580      C1585   1.517       .  S
C1581      C1582   1.404       .  A
C1581      H1586   1.084       .  S
C1582      C1583   1.429       .  A
C1583      C1584   1.399       .  A
C1583      C1587   1.522       .  S
C1584      H1588   1.084       .  S
C1585      F1598   1.384       .  S
C1585      F1599   1.384       .  S
C1585      F1600   1.381       .  S
C1587      F1595   1.385       .  S
C1587      F1596   1.381       .  S
C1587      F1597   1.379       .  S
C1601      C1602   1.401       .  A
C1601      C1606   1.406       .  A
C1601      H1611   1.082       .  S
C1602      C1607   1.487       .  S
C1602      C1603   1.415       .  A
C1603      C1604   1.409       .  A
C1603      C1608   1.518       .  S
C1604      C1605   1.406       .  A
C1604      H1609   1.083       .  S
C1605      C1606   1.419       .  A
C1606      C1610   1.517       .  S
C1607      C1612   1.414       .  A
C1607      C1616   1.402       .  A
C1608      F1624   1.382       .  S
C1608      F1625   1.382       .  S
C1608      F1626   1.385       .  S
C1610      F1621   1.382       .  S
C1610      F1622   1.385       .  S
C1610      F1623   1.383       .  S
C1612      C1613   1.406       .  A
C1612      C1617   1.521       .  S
C1613      C1614   1.409       .  A
C1613      H1618   1.082       .  S
C1614      C1615   1.423       .  A
C1615      C1616   1.411       .  A
C1615      C1619   1.519       .  S
C1616      H1620   1.082       .  S
C1617      F1630   1.385       .  S
C1617      F1631   1.382       .  S
C1617      F1632   1.382       .  S
C1619      F1627   1.382       .  S
C1619      F1628   1.382       .  S
C1619      F1629   1.384       .  S
C1633      C1634   1.399       .  A
C1633      C1638   1.409       .  A
C1633      H1643   1.082       .  S
C1634      C1639   1.485       .  S
C1634      C1635   1.414       .  A
C1635      C1636   1.408       .  A
C1635      C1640   1.517       .  S
C1636      C1637   1.405       .  A
C1636      H1641   1.082       .  S
C1637      C1638   1.425       .  A
C1638      C1642   1.518       .  S
C1639      C1644   1.417       .  A
C1639      C1648   1.401       .  A
C1640      F1656   1.384       .  S
C1640      F1657   1.381       .  S
C1640      F1658   1.384       .  S
C1642      F1653   1.380       .  S
C1642      F1654   1.385       .  S
C1642      F1655   1.383       .  S
C1644      C1645   1.401       .  A
C1644      C1649   1.521       .  S
C1645      C1646   1.403       .  A
C1645      H1650   1.082       .  S
C1646      C1647   1.425       .  A
C1647      C1648   1.412       .  A
C1647      C1651   1.519       .  S
C1648      H1652   1.084       .  S
C1649      F1662   1.380       .  S
C1649      F1663   1.382       .  S
C1649      F1664   1.384       .  S
C1651      F1659   1.384       .  S
C1651      F1660   1.383       .  S
C1651      F1661   1.383       .  S
C1665      C1666   1.412       .  A
C1665      C1670   1.421       .  A
C1665      H1675   1.082       .  S
C1666      C1671   1.503       .  S
C1666      C1667   1.414       .  A
C1667      C1668   1.408       .  A
C1667      C1672   1.521       .  S
C1668      C1669   1.409       .  A
C1668      H1673   1.081       .  S
C1669      C1670   1.415       .  A
C1670      C1674   1.514       .  S
C1671      C1676   1.415       .  A
C1671      C1680   1.407       .  A
C1672      F1688   1.382       .  S
C1672      F1689   1.382       .  S
C1672      F1690   1.384       .  S
C1674      F1685   1.384       .  S
C1674      F1686   1.383       .  S
C1674      F1687   1.383       .  S
C1676      C1677   1.409       .  A
C1676      C1681   1.521       .  S
C1677      C1678   1.411       .  A
C1677      H1682   1.077       .  S
C1678      C1679   1.426       .  A
C1679      C1680   1.420       .  A
C1679      C1683   1.518       .  S
C1680      H1684   1.080       .  S
C1681      F1694   1.385       .  S
C1681      F1695   1.382       .  S
C1681      F1696   1.382       .  S
C1683      F1691   1.385       .  S
C1683      F1692   1.382       .  S
C1683      F1693   1.384       .  S
C1697      C1698   1.403       .  A
C1697      C1702   1.413       .  A
C1697      H1707   1.082       .  S
C1698      C1703   1.483       .  S
C1698      C1699   1.414       .  A
C1699      C1700   1.398       .  A
C1699      C1704   1.525   1_565  S
C1700      C1701   1.410       .  A
C1700      H1705   1.081       .  S
C1701      C1702   1.424       .  A
C1702      C1706   1.518       .  S
C1703      C1708   1.418       .  A
C1703      C1712   1.398       .  A
C1704      F1720   1.381       .  S
C1704      F1721   1.383       .  S
C1704      F1722   1.385       .  S
C1706      F1717   1.383       .  S
C1706      F1718   1.385       .  S
C1706      F1719   1.384       .  S
C1708      C1709   1.407       .  A
C1708      C1713   1.518       .  S
C1709      C1710   1.402   1_565  A
C1709      H1714   1.084   1_565  S
C1710      C1711   1.418       .  A
C1711      C1712   1.402   1_545  A
C1711      C1715   1.514       .  S
C1712      H1716   1.084       .  S
C1713      F1726   1.384       .  S
C1713      F1727   1.382       .  S
C1713      F1728   1.380       .  S
C1715      F1723   1.385   1_545  S
C1715      F1724   1.381       .  S
C1715      F1725   1.381       .  S
C1729      C1730   1.397   1_565  A
C1729      C1734   1.400   1_565  A
C1729      H1739   1.081       .  S
C1730      C1735   1.482       .  S
C1730      C1731   1.416       .  A
C1731      C1732   1.410       .  A
C1731      C1736   1.519       .  S
C1732      C1733   1.408       .  A
C1732      H1737   1.081       .  S
C1733      C1734   1.425       .  A
C1734      C1738   1.522   1_445  S
C1735      C1740   1.419   1_545  A
C1735      C1744   1.398       .  A
C1736      F1752   1.381       .  S
C1736      F1753   1.383       .  S
C1736      F1754   1.385       .  S
C1738      F1749   1.385   1_655  S
C1738      F1750   1.377       .  S
C1738      F1751   1.381       .  S
C1740      C1741   1.403       .  A
C1740      C1745   1.518       .  S
C1741      C1742   1.404       .  A
C1741      H1746   1.087       .  S
C1742      C1743   1.425   1_565  A
C1743      C1744   1.404       .  A
C1743      C1747   1.520       .  S
C1744      H1748   1.085       .  S
C1745      F1758   1.384       .  S
C1745      F1759   1.383       .  S
C1745      F1760   1.382       .  S
C1747      F1755   1.377   1_545  S
C1747      F1756   1.383       .  S
C1747      F1757   1.385       .  S
C1761      C1762   1.403       .  A
C1761      C1766   1.407       .  A
C1761      H1771   1.084       .  S
C1762      C1767   1.501   1_565  S
C1762      C1763   1.422       .  A
C1763      C1764   1.416       .  A
C1763      C1768   1.520       .  S
C1764      C1765   1.405       .  A
C1764      H1769   1.082       .  S
C1765      C1766   1.419       .  A
C1766      C1770   1.517       .  S
C1767      C1772   1.423       .  A
C1767      C1776   1.395   1_545  A
C1768      F1784   1.381       .  S
C1768      F1785   1.382   1_565  S
C1768      F1786   1.385       .  S
C1770      F1781   1.383       .  S
C1770      F1782   1.384       .  S
C1770      F1783   1.383       .  S
C1772      C1773   1.423       .  A
C1772      C1777   1.517       .  S
C1773      C1774   1.407       .  A
C1773      H1778   1.084       .  S
C1774      C1775   1.425       .  A
C1775      C1776   1.404   1_545  A
C1775      C1779   1.514   1_545  S
C1776      H1780   1.084       .  S
C1777      F1790   1.384       .  S
C1777      F1791   1.382       .  S
C1777      F1792   1.383       .  S
C1779      F1787   1.380       .  S
C1779      F1788   1.380   1_565  S
C1779      F1789   1.385       .  S
C1793      C1794   1.409       .  A
C1793      C1798   1.418       .  A
C1793      H1803   1.083       .  S
C1794      C1799   1.500       .  S
C1794      C1795   1.415       .  A
C1795      C1796   1.407       .  A
C1795      C1800   1.519       .  S
C1796      C1797   1.406       .  A
C1796      H1801   1.084       .  S
C1797      C1798   1.417       .  A
C1798      C1802   1.515       .  S
C1799      C1804   1.414       .  A
C1799      C1808   1.407       .  A
C1800      F1816   1.382       .  S
C1800      F1817   1.383       .  S
C1800      F1818   1.385       .  S
C1802      F1813   1.383       .  S
C1802      F1814   1.384       .  S
C1802      F1815   1.383       .  S
C1804      C1805   1.406       .  A
C1804      C1809   1.523       .  S
C1805      C1806   1.415       .  A
C1805      H1810   1.081       .  S
C1806      C1807   1.426       .  A
C1807      C1808   1.422       .  A
C1807      C1811   1.517       .  S
C1808      H1812   1.083       .  S
C1809      F1822   1.382       .  S
C1809      F1823   1.383       .  S
C1809      F1824   1.385       .  S
C1811      F1819   1.383       .  S
C1811      F1820   1.383       .  S
C1811      F1821   1.385       .  S
C1825      C1826   1.402       .  A
C1825      C1830   1.410       .  A
C1825      H1835   1.083       .  S
C1826      C1831   1.505       .  S
C1826      C1827   1.423       .  A
C1827      C1828   1.419       .  A
C1827      C1832   1.518       .  S
C1828      C1829   1.406       .  A
C1828      H1833   1.082       .  S
C1829      C1830   1.422       .  A
C1830      C1834   1.517       .  S
C1831      C1836   1.423       .  A
C1831      C1840   1.404       .  A
C1832      F1848   1.381       .  S
C1832      F1849   1.382       .  S
C1832      F1850   1.384       .  S
C1834      F1845   1.382       .  S
C1834      F1846   1.385       .  S
C1834      F1847   1.383       .  S
C1836      C1837   1.417       .  A
C1836      C1841   1.519       .  S
C1837      C1838   1.405       .  A
C1837      H1842   1.081       .  S
C1838      C1839   1.421       .  A
C1839      C1840   1.409       .  A
C1839      C1843   1.518       .  S
C1840      H1844   1.084       .  S
C1841      F1854   1.385       .  S
C1841      F1855   1.381       .  S
C1841      F1856   1.383       .  S
C1843      F1851   1.384       .  S
C1843      F1852   1.381       .  S
C1843      F1853   1.384       .  S
C1857      C1858   1.397       .  A
C1857      C1862   1.386   1_545  A
C1857      H1867   1.085       .  S
C1858      C1863   1.474       .  S
C1858      C1859   1.423       .  A
C1859      C1860   1.409   1_545  A
C1859      C1864   1.517       .  S
C1860      C1861   1.401       .  A
C1860      H1865   1.083       .  S
C1861      C1862   1.408       .  A
C1862      C1866   1.505       .  S
C1863      C1868   1.421   1_545  A
C1863      C1872   1.404       .  A
C1864      F1880   1.382       .  S
C1864      F1881   1.383   1_545  S
C1864      F1882   1.383       .  S
C1866      F1877   1.379       .  S
C1866      F1878   1.385   1_565  S
C1866      F1879   1.381   1_565  S
C1868      C1869   1.401   1_565  A
C1868      C1873   1.520       .  S
C1869      C1870   1.405       .  A
C1869      H1874   1.083   1_545  S
C1870      C1871   1.413       .  A
C1871      C1872   1.392       .  A
C1871      C1875   1.516       .  S
C1872      H1876   1.084       .  S
C1873      F1886   1.384       .  S
C1873      F1887   1.380       .  S
C1873      F1888   1.383       .  S
C1875      F1883   1.382       .  S
C1875      F1884   1.382       .  S
C1875      F1885   1.385       .  S
