geometry optimzed in LAMMPS
_audit_creation_date              2020-12-01 
_audit_creation_method            'lammps2cif' 
_symmetry_space_group_name_H-M    'P1' 
_symmetry_Int_Tables_number       1 
_symmetry_cell_setting            triclinic 
loop_ 
_symmetry_equiv_pos_as_xyz 
  x,y,z 
_cell_length_a                    59.66047015 
_cell_length_b                    71.66732096188066 
_cell_length_c                    49.23949807087159 
_cell_angle_alpha                 89.87764291787083 
_cell_angle_beta                  89.97538388032207 
_cell_angle_gamma                 89.88269936889428 
loop_ 
_atom_site_label 
_atom_site_type_symbol 
_atom_site_fract_x 
_atom_site_fract_y 
_atom_site_fract_z 
_atom_site_charge 
Zr1        Zr  0.35291699  0.52304138  0.63090411     2.17500
O2          O  0.36957950  0.54234629  0.66629092    -0.51600
O3          O  0.33116462  0.51387436  0.67127851    -0.74800
O4          O  0.33648678  0.55426366  0.63362635    -0.81600
O5          O  0.40419414  0.49140041  0.62997259    -0.83400
O6          O  0.31032190  0.55753681  0.60070779    -0.79000
O7          O  0.39073399  0.51816373  0.64811857    -0.90600
O8          O  0.30698637  0.49081004  0.66032869    -0.76600
O9          O  0.31612796  0.51529422  0.61640473    -0.86100
O10         O  0.35158608  0.48978366  0.62974753    -0.85800
O11         O  0.35012826  0.53754865  0.58670997    -0.72500
O12         O  0.38062468  0.51355183  0.59808857    -0.84700
Zr13       Zr  0.33758892  0.48601270  0.53777044     2.26400
Zr14       Zr  0.31308630  0.52955299  0.57254648     2.06300
Zr15       Zr  0.37842214  0.48037200  0.59641763     2.10000
Zr16       Zr  0.31512278  0.48197185  0.61424757     1.78800
O17         O  0.41780784  0.47435445  0.58671428    -0.93500
O18         O  0.27436630  0.48312055  0.61698071    -0.41300
O19         O  0.34196098  0.47145648  0.58151076    -0.77900
O20         O  0.31018884  0.49609265  0.57075007    -0.96600
O21         O  0.33964294  0.51928413  0.53918186    -0.89900
O22         O  0.37458203  0.49352268  0.55205874    -0.92700
C23         C  0.31519231  0.50250506  0.67718746     1.01000
C24         C  0.40597246  0.50563265  0.64542171     1.14000
C25         C  0.32130508  0.56375197  0.62123928     1.04700
O26         O  0.27396877  0.53388024  0.58525291    -0.94900
O27         O  0.28941692  0.52114946  0.53493157    -0.90600
O28         O  0.30309873  0.49502854  0.51457900    -0.83800
C29         C  0.28838875  0.50803864  0.51729723     1.11400
O30         O  0.40033498  0.55243113  0.56749462    -0.96900
Zr31       Zr  0.37657327  0.52654516  0.55348219     1.88900
O32         O  0.35699561  0.49489542  0.49592453    -0.73500
O33         O  0.31393982  0.55619621  0.54174713    -0.52800
O34         O  0.36697194  0.55498966  0.52884329    -0.97400
O35         O  0.41677709  0.52080336  0.55009843    -0.54700
O36         O  0.38139033  0.51812824  0.50580228    -0.74000
C37         C  0.37243076  0.50653390  0.48916013     0.98300
O38         O  0.31490964  0.46289568  0.51411848    -0.62800
O39         O  0.37710818  0.45366494  0.62711050    -0.57600
O40         O  0.35746417  0.45597319  0.53260945    -0.94300
O41         O  0.38385530  0.45477055  0.56575530    -0.92800
O42         O  0.32599900  0.45527761  0.64202289    -0.93100
O43         O  0.29612216  0.45409224  0.59801486    -0.91900
C44         C  0.37410351  0.44807343  0.54481176     1.17200
H45         H  0.35485695  0.48446295  0.64733721     0.33100
H46         H  0.29533393  0.49247912  0.56512059     0.44000
H47         H  0.38573065  0.48842376  0.53989391     0.37500
H48         H  0.35211896  0.55089721  0.58759485     0.34000
H49         H  0.27064020  0.47778420  0.63499573     0.25800
H50         H  0.29901826  0.56210968  0.54369918     0.31700
H51         H  0.36003945  0.55071305  0.51168867     0.37600
H52         H  0.33264274  0.44626471  0.62909107     0.32100
H53         H  0.38508527  0.44354116  0.61742464     0.30900
H54         H  0.42178354  0.46346757  0.59817386     0.32600
H55         H  0.41854036  0.51181825  0.53500807     0.31600
H56         H  0.29829402  0.45433101  0.57807742     0.35600
H57         H  0.32435251  0.45823929  0.49903243     0.28300
H58         H  0.35709707  0.54606813  0.67839434     0.32500
H59         H  0.40728468  0.55721671  0.55059528     0.35400
H60         H  0.38721096  0.45699088  0.64228116     0.28000
H61         H  0.31358367  0.45225232  0.52686820     0.40900
H62         H  0.26826818  0.54356175  0.57262925     0.30900
H63         H  0.27075567  0.49655772  0.61861261     0.38600
H64         H  0.42051455  0.51352361  0.56660398     0.30400
H65         H  0.32444878  0.56515216  0.55018242     0.30500
H66         H  0.37440839  0.55402562  0.65725054     0.30700
Zr67       Zr  0.35307153  0.74035650  0.66048537     2.17500
O68         O  0.37056198  0.71908241  0.62807204    -0.51600
O69         O  0.32807609  0.74663520  0.62228114    -0.74800
O70         O  0.33701295  0.70910129  0.66104295    -0.81600
O71         O  0.40050190  0.77519234  0.65109985    -0.83400
O72         O  0.31384794  0.70604565  0.69719818    -0.79000
O73         O  0.38717233  0.74753873  0.63573660    -0.90600
O74         O  0.30491349  0.77076894  0.63230267    -0.76600
O75         O  0.31704774  0.74694232  0.67849923    -0.86100
O76         O  0.34905233  0.77347057  0.65941362    -0.85800
O77         O  0.35429175  0.72717728  0.70548818    -0.72500
O78         O  0.38268641  0.75214592  0.68871245    -0.84700
Zr79       Zr  0.34238386  0.77962852  0.75208731     2.26400
Zr80       Zr  0.31807204  0.73447378  0.72354236     2.06300
Zr81       Zr  0.37775323  0.78524249  0.68859103     2.10000
Zr82       Zr  0.31329887  0.78004660  0.67839923     1.78800
O83         O  0.41735418  0.79230586  0.69450359    -0.93500
O84         O  0.27352116  0.77235738  0.67715136    -0.41300
O85         O  0.34189698  0.79285052  0.70710749    -0.77900
O86         O  0.31296472  0.76772045  0.72352502    -0.96600
O87         O  0.34669784  0.74654342  0.75255432    -0.89900
O88         O  0.37846225  0.77308058  0.73376168    -0.92700
C89         C  0.31217810  0.75804382  0.61631710     1.01000
C90         C  0.40144682  0.76089712  0.63561558     1.14000
C91         C  0.32317415  0.69970250  0.67560070     1.04700
O92         O  0.27828291  0.72916061  0.71589211    -0.94900
O93         O  0.29749123  0.74295992  0.76370039    -0.90600
O94         O  0.31118332  0.77006712  0.78093119    -0.83800
C95         C  0.29736848  0.75630437  0.78096425     1.11400
O96         O  0.40785061  0.71563976  0.71815799    -0.96900
Zr97       Zr  0.38271107  0.74015519  0.73416725     1.88900
O98         O  0.36437533  0.77180289  0.79214032    -0.73500
O99         O  0.32256987  0.70862753  0.75528391    -0.52800
O100        O  0.37774001  0.71107619  0.75919403    -0.97400
O101        O  0.42228165  0.74863769  0.73472317    -0.54700
O102        O  0.38849102  0.74839649  0.78150995    -0.74000
C103        C  0.37996055  0.76013394  0.79825428     0.98300
O104        O  0.32058491  0.80416009  0.77412964    -0.62800
O105        O  0.37410609  0.81203200  0.65833313    -0.57600
O106        O  0.36380879  0.80863766  0.75647181    -0.94300
O107        O  0.38345720  0.81190138  0.71733554    -0.92800
O108        O  0.31815663  0.80901839  0.65311944    -0.93100
O109        O  0.28948067  0.80527076  0.69476310    -0.91900
C110        C  0.37757308  0.81746299  0.74097224     1.17200
H111        H  0.35050446  0.77823734  0.64111461     0.33100
H112        H  0.29852799  0.77093849  0.73105727     0.44000
H113        H  0.39015482  0.77888439  0.74432036     0.37500
H114        H  0.35682218  0.71385243  0.70505049     0.34000
H115        H  0.27298660  0.75927166  0.67077139     0.25800
H116        H  0.30846948  0.70144392  0.75381571     0.31700
H117        H  0.38986424  0.71094349  0.77292021     0.37600
H118        H  0.32214144  0.80517036  0.63443222     0.32100
H119        H  0.37067083  0.80682556  0.64021199     0.30900
H120        H  0.42048060  0.80233234  0.68115624     0.32600
H121        H  0.42355473  0.75874464  0.74829508     0.31600
H122        H  0.29319752  0.80637848  0.71429015     0.35600
H123        H  0.32859685  0.80681060  0.79130071     0.28300
H124        H  0.35834869  0.71482834  0.61596866     0.32500
H125        H  0.41742921  0.71230952  0.73387758     0.35400
H126        H  0.36012426  0.81832069  0.66412898     0.28000
H127        H  0.32257153  0.81551229  0.76288826     0.40900
H128        H  0.27446942  0.71849565  0.72783293     0.30900
H129        H  0.26877911  0.77165359  0.69639169     0.38600
H130        H  0.42486696  0.75487093  0.71703392     0.30400
H131        H  0.33407980  0.70048159  0.74694594     0.30500
H132        H  0.37508678  0.70788843  0.63856682     0.30700
Zr133      Zr  0.45280704  0.53030406  0.15433257     2.17500
O134        O  0.43448529  0.55321772  0.12506310    -0.51600
O135        O  0.47568559  0.52162808  0.11441089    -0.74800
O136        O  0.47164414  0.56061694  0.15312002    -0.81600
O137        O  0.40257488  0.49793756  0.14617512    -0.83400
O138        O  0.49495956  0.56264164  0.18926871    -0.79000
O139        O  0.41883767  0.52401767  0.12891965    -0.90600
O140        O  0.49746318  0.49677685  0.12503510    -0.76600
O141        O  0.48880864  0.52138794  0.17025558    -0.86100
O142        O  0.45296046  0.49706176  0.15459189    -0.85800
O143        O  0.45426131  0.54332868  0.19951373    -0.72500
O144        O  0.42310950  0.52106188  0.18485513    -0.84700
Zr145      Zr  0.46318327  0.49022985  0.24571674     2.26400
Zr146      Zr  0.49054230  0.53395430  0.21516035     2.25500
Zr147      Zr  0.42383762  0.48770538  0.18516322     2.10000
Zr148      Zr  0.48881979  0.48811494  0.17111266     1.78800
O149        O  0.38426139  0.48751532  0.19728509    -0.93500
O150        O  0.52938256  0.49203374  0.17120082    -0.41300
O151        O  0.45971519  0.47758255  0.20083618    -0.77900
O152        O  0.49255013  0.50054219  0.21576914    -0.96600
O153        O  0.46229103  0.52352454  0.24614580    -0.89900
O154        O  0.42696189  0.49926933  0.23030500    -0.92700
C155        C  0.49064744  0.50927041  0.10838143     1.01000
C156        C  0.40350991  0.51149613  0.12918328     1.14000
C157        C  0.48595247  0.56944883  0.16773478     1.04700
O158        O  0.53013838  0.53478642  0.20313597    -0.94900
O159        O  0.51020543  0.52486473  0.25563690    -0.90600
O160        O  0.49424089  0.49926148  0.27490953    -0.83800
C161        C  0.50926220  0.51207345  0.27380825     1.11400
O162        O  0.40416699  0.56012903  0.22023453    -0.96900
Zr163      Zr  0.42619844  0.53233012  0.23070367     1.88900
O164        O  0.44185104  0.49707034  0.28665838    -0.73500
O165        O  0.49385095  0.56022181  0.24626215    -0.52800
O166        O  0.43624622  0.55963756  0.25749984    -0.97400
O167        O  0.38574361  0.52754086  0.23049138    -0.54700
O168        O  0.41993449  0.52234187  0.27771300    -0.74000
C169        C  0.42719044  0.50934810  0.29354054     0.98300
O170        O  0.48578771  0.46395745  0.26180099    -0.62800
O171        O  0.42043418  0.46029985  0.15627924    -0.57600
O172        O  0.44125172  0.46154527  0.24992775    -0.94300
O173        O  0.41818182  0.46032993  0.21325338    -0.92800
O174        O  0.48159862  0.46160498  0.14157077    -0.93100
O175        O  0.50662672  0.45977040  0.18807049    -0.91900
C176        C  0.42602360  0.45361145  0.23549827     1.17200
H177        H  0.45036924  0.49218194  0.13659425     0.33100
H178        H  0.50692460  0.49653787  0.22269295     0.44000
H179        H  0.41531809  0.49407556  0.24164578     0.37500
H180        H  0.45287585  0.55675947  0.19903630     0.34000
H181        H  0.53487696  0.48343735  0.15695215     0.25800
H182        H  0.50745121  0.56701756  0.24035941     0.31700
H183        H  0.44110192  0.55467227  0.27533584     0.37600
H184        H  0.46961911  0.45451512  0.15089844     0.32100
H185        H  0.40410963  0.45794544  0.15516025     0.30900
H186        H  0.37817041  0.47617267  0.18856471     0.32600
H187        H  0.38339891  0.51519092  0.23904534     0.31600
H188        H  0.51502718  0.46371273  0.20441627     0.35600
H189        H  0.48179019  0.45331093  0.24999177     0.28300
H190        H  0.44582582  0.55687635  0.11137627     0.32500
H191        H  0.39564334  0.56298652  0.23700188     0.35400
H192        H  0.42462671  0.46461620  0.13786251     0.28000
H193        H  0.50132727  0.46692906  0.25622363     0.40900
H194        H  0.53662923  0.52334276  0.21127602     0.30900
H195        H  0.53186142  0.50464753  0.16354265     0.38600
H196        H  0.38184509  0.52566972  0.21114289     0.30400
H197        H  0.48123677  0.56861620  0.24154296     0.30500
H198        H  0.43198569  0.56446323  0.13632975     0.30700
Zr199      Zr  0.45702238  0.74633117  0.13245872     2.17500
O200        O  0.44135964  0.72632454  0.16780139    -0.51600
O201        O  0.47850654  0.75549037  0.17224772    -0.74800
O202        O  0.47461511  0.71554224  0.13480995    -0.81600
O203        O  0.40453641  0.77627354  0.13331022    -0.83400
O204        O  0.50011839  0.71273743  0.10108108    -0.79000
O205        O  0.41987590  0.75017353  0.15158147    -0.90600
O206        O  0.50523760  0.77617357  0.15987486    -0.76600
O207        O  0.49364333  0.75413601  0.11746704    -0.86100
O208        O  0.45870349  0.77962927  0.13231650    -0.85800
O209        O  0.45905497  0.73226430  0.08815944    -0.72500
O210        O  0.42832995  0.75643916  0.10146743    -0.84700
Zr211      Zr  0.47002681  0.78475555  0.04050726     2.26400
Zr212      Zr  0.49578576  0.74076867  0.07324847     2.06300
Zr213      Zr  0.43056322  0.78970243  0.10086865     2.10000
Zr214      Zr  0.49498642  0.78737041  0.11548160     1.78800
O215        O  0.39152354  0.79952724  0.09810437    -0.93500
O216        O  0.53568296  0.78516180  0.11237922    -0.41300
O217        O  0.46680558  0.79854194  0.08474897    -0.77900
O218        O  0.49878090  0.77420482  0.07122730    -0.96600
O219        O  0.46810813  0.75147412  0.04164488    -0.89900
O220        O  0.43345034  0.77692905  0.05620125    -0.92700
C221        C  0.49593313  0.76537056  0.17720337     1.01000
C222        C  0.40384579  0.76197970  0.14905576     1.14000
C223        C  0.48987010  0.70639009  0.12211544     1.04700
O224        O  0.53538888  0.73969013  0.08505788    -0.94900
O225        O  0.51546629  0.74855493  0.03239487    -0.90600
O226        O  0.50136038  0.77458800  0.01208189    -0.83800
C227        C  0.51523362  0.76084158  0.01351570     1.11400
O228        O  0.40666128  0.71904273  0.07189419    -0.96900
Zr229      Zr  0.43155467  0.74390580  0.05670175     1.88900
O230        O  0.45092013  0.77630671  0.99888736    -0.73500
O231        O  0.49815281  0.71348328  0.04390927    -0.52800
O232        O  0.43839536  0.71462998  0.03301275    -0.97400
O233        O  0.39188314  0.75170931  0.05258988    -0.54700
O234        O  0.42857347  0.75163618  0.00861465    -0.74000
C235        C  0.43672423  0.76374432  0.99204361     0.98300
O236        O  0.49110741  0.81176001  0.02439331    -0.62800
O237        O  0.43598891  0.81528880  0.13265421    -0.57600
O238        O  0.44685834  0.81260974  0.03273063    -0.94300
O239        O  0.42281291  0.81453286  0.06841616    -0.92800
O240        O  0.48673215  0.81341284  0.14559101    -0.93100
O241        O  0.51458047  0.81581656  0.10254263    -0.91900
C242        C  0.43066224  0.82051140  0.04570915     1.17200
H243        H  0.45610996  0.78460012  0.15025156     0.33100
H244        H  0.51334609  0.77775594  0.06431391     0.44000
H245        H  0.42198134  0.78191872  0.04438295     0.37500
H246        H  0.45730519  0.71887398  0.08896653     0.34000
H247        H  0.54128748  0.79074085  0.12944945     0.25800
H248        H  0.51212489  0.70700983  0.04937888     0.31700
H249        H  0.45136656  0.71719625  0.02103978     0.37600
H250        H  0.50056294  0.81513176  0.15640352     0.32100
H251        H  0.43027918  0.82645245  0.12298492     0.30900
H252        H  0.39078913  0.81136276  0.10840969     0.32600
H253        H  0.39043337  0.75831573  0.03500130     0.31600
H254        H  0.51162263  0.81719774  0.08286534     0.35600
H255        H  0.48910184  0.82129328  0.03872983     0.28300
H256        H  0.45388940  0.72343296  0.18030858     0.32500
H257        H  0.39810726  0.71522377  0.05559703     0.35400
H258        H  0.42487361  0.81299768  0.14721566     0.28000
H259        H  0.50709958  0.80821361  0.02588960     0.40900
H260        H  0.54222939  0.73132005  0.07138300     0.30900
H261        H  0.53897370  0.77168507  0.11428256     0.38600
H262        H  0.38929044  0.76147663  0.06644319     0.30400
H263        H  0.48594174  0.70515571  0.05008034     0.30500
H264        H  0.43753648  0.71433469  0.15899821     0.30700
Zr265      Zr  0.08805646  0.52512843  0.28864067     2.17500
O266        O  0.06773777  0.54875275  0.26274022    -0.51600
O267        O  0.10864805  0.51680757  0.24799518    -0.74800
O268        O  0.10924547  0.55459636  0.28473981    -0.81600
O269        O  0.03770078  0.49248182  0.28476063    -0.83400
O270        O  0.13237799  0.55661680  0.32113086    -0.79000
O271        O  0.05322454  0.51817460  0.26516749    -0.90600
O272        O  0.13430241  0.49462259  0.25896173    -0.76600
O273        O  0.12434305  0.51789097  0.30546840    -0.86100
O274        O  0.09086165  0.49176593  0.28833196    -0.85800
O275        O  0.08878655  0.53860684  0.33323037    -0.72500
O276        O  0.05915026  0.51338559  0.31786038    -0.84700
Zr277      Zr  0.09989064  0.48674168  0.38039448     2.26400
Zr278      Zr  0.12504541  0.53040997  0.35039616     2.06300
Zr279      Zr  0.06277305  0.48011371  0.31872410     2.10000
Zr280      Zr  0.12710154  0.48478951  0.30546608     1.78800
O281        O  0.02411861  0.47256894  0.33024416    -0.93500
O282        O  0.16734413  0.49039811  0.30393269    -0.41300
O283        O  0.09915600  0.47284651  0.33592582    -0.77900
O284        O  0.12926741  0.49724279  0.35050114    -0.96600
O285        O  0.09622871  0.51976682  0.38035178    -0.89900
O286        O  0.06333312  0.49308024  0.36341591    -0.92700
C287        C  0.12511998  0.50602154  0.24214732     1.01000
C288        C  0.03748567  0.50610003  0.26782534     1.14000
C289        C  0.12463248  0.56285322  0.29861657     1.04700
O290        O  0.16516934  0.53373190  0.34293169    -0.94900
O291        O  0.14609664  0.52236519  0.39051964    -0.90600
O292        O  0.13345046  0.49452140  0.40605179    -0.83800
C293        C  0.14722017  0.50825108  0.40646800     1.11400
O294        O  0.03827117  0.55260195  0.34512983    -0.96900
Zr295      Zr  0.06003225  0.52626650  0.36228836     1.88900
O296        O  0.07548462  0.49373214  0.41899992    -0.73500
O297        O  0.12285445  0.55822071  0.37862525    -0.52800
O298        O  0.06519682  0.55368655  0.39073300    -0.97400
O299        O  0.01998463  0.51949375  0.36069643    -0.54700
O300        O  0.05117963  0.51691671  0.40801258    -0.74000
C301        C  0.05918806  0.50485029  0.42456317     0.98300
O302        O  0.11799339  0.46688562  0.41412606    -0.62800
O303        O  0.06366430  0.45574160  0.28423624    -0.57600
O304        O  0.08639234  0.45480105  0.37915311    -0.94300
O305        O  0.06246949  0.45078447  0.34398278    -0.92800
O306        O  0.12183602  0.45725719  0.27729688    -0.93100
O307        O  0.14755949  0.45763775  0.32222400    -0.91900
C308        C  0.07298297  0.44476894  0.36505429     1.17200
H309        H  0.08877697  0.48682455  0.27027262     0.33100
H310        H  0.14383622  0.49374797  0.35727895     0.44000
H311        H  0.05183559  0.48730528  0.37440925     0.37500
H312        H  0.08717468  0.55199413  0.33213661     0.34000
H313        H  0.17322459  0.48095721  0.29109974     0.25800
H314        H  0.11988545  0.55350520  0.39719447     0.31700
H315        H  0.07584544  0.56164759  0.38056104     0.37600
H316        H  0.11080251  0.44957115  0.28731167     0.32100
H317        H  0.05081211  0.44755483  0.28864676     0.30900
H318        H  0.02064053  0.46127826  0.31948906     0.32600
H319        H  0.01792649  0.50837476  0.37239161     0.31600
H320        H  0.15335583  0.46141304  0.34022625     0.35600
H321        H  0.10586335  0.46254807  0.42630220     0.28300
H322        H  0.07776934  0.55219207  0.24751171     0.32500
H323        H  0.02784658  0.55597387  0.35999710     0.35400
H324        H  0.05926831  0.46199164  0.26709437     0.28000
H325        H  0.12329612  0.45566233  0.40432688     0.40900
H326        H  0.17067881  0.52083274  0.34021130     0.30900
H327        H  0.16894657  0.50239812  0.29412758     0.38600
H328        H  0.01729768  0.51487594  0.34204228     0.30400
H329        H  0.13843889  0.56292700  0.37934804     0.30500
H330        H  0.06717201  0.55992229  0.27452088     0.30700
Zr331      Zr  0.09007926  0.22894241  0.49643955     2.17500
O332        O  0.06583794  0.20482822  0.51538227    -0.51600
O333        O  0.10966589  0.23530709  0.53872635    -0.74800
O334        O  0.11086006  0.19976742  0.50331380    -0.81600
O335        O  0.04266199  0.26476248  0.50057245    -0.83400
O336        O  0.13846661  0.19913208  0.47163227    -0.79000
O337        O  0.05723277  0.23920809  0.52162388    -0.90600
O338        O  0.13440818  0.25855755  0.53003461    -0.76600
O339        O  0.12741661  0.23671490  0.48394109    -0.86100
O340        O  0.09214736  0.26219969  0.49625100    -0.85800
O341        O  0.09534683  0.21529790  0.45235415    -0.72500
O342        O  0.06319659  0.23967150  0.46352559    -0.84700
Zr343      Zr  0.10870933  0.26759998  0.40590289     2.26400
Zr344      Zr  0.13248711  0.22414968  0.43951332     2.06300
Zr345      Zr  0.06624449  0.27302298  0.46265878     2.10000
Zr346      Zr  0.12933411  0.26976136  0.48387457     1.78800
O347        O  0.02823095  0.27586610  0.44510455    -0.93500
O348        O  0.16954474  0.26497777  0.48887717    -0.41300
O349        O  0.10364053  0.28123958  0.45018189    -0.77900
O350        O  0.13544771  0.25746282  0.43964519    -0.96600
O351        O  0.10653051  0.23441096  0.40566117    -0.89900
O352        O  0.07120105  0.26009146  0.41830869    -0.92700
C353        C  0.12559695  0.24630672  0.54576773     1.01000
C354        C  0.04265243  0.25235930  0.51937412     1.14000
C355        C  0.12827296  0.19231057  0.49227693     1.04700
O356        O  0.17146553  0.21582054  0.44772992    -0.94900
O357        O  0.15905280  0.23460133  0.40595012    -0.90600
O358        O  0.14466994  0.26024467  0.38498476    -0.83800
C359        C  0.16017040  0.24806144  0.38885517     1.11400
O360        O  0.04656445  0.19997491  0.43152935    -0.96900
Zr361      Zr  0.06937713  0.22685725  0.41925807     1.88900
O362        O  0.08859295  0.25997362  0.36386348    -0.73500
O363        O  0.12914972  0.19789412  0.40848410    -0.52800
O364        O  0.08045462  0.19912447  0.39405823    -0.97400
O365        O  0.02915555  0.23117963  0.41318727    -0.54700
O366        O  0.06598502  0.23521249  0.37199181    -0.74000
C367        C  0.07423376  0.24766793  0.35623985     0.98300
O368        O  0.12965694  0.28917897  0.37708252    -0.62800
O369        O  0.06258557  0.29896331  0.49431339    -0.57600
O370        O  0.09307442  0.29908842  0.40495233    -0.94300
O371        O  0.06639373  0.30216463  0.43731371    -0.92800
O372        O  0.12054957  0.29696537  0.51147745    -0.93100
O373        O  0.15196642  0.29637853  0.47007795    -0.91900
C374        C  0.07803423  0.30860399  0.41749556     1.17200
H375        H  0.08858809  0.26727697  0.51389752     0.33100
H376        H  0.15037359  0.26155689  0.43523444     0.44000
H377        H  0.06047008  0.26543535  0.40578938     0.37500
H378        H  0.09416952  0.20188296  0.45331031     0.34000
H379        H  0.17346288  0.27128765  0.50609922     0.25800
H380        H  0.14313437  0.19817375  0.39765748     0.31700
H381        H  0.06781216  0.19664853  0.38156822     0.37600
H382        H  0.13170591  0.29668087  0.52636593     0.32100
H383        H  0.07520932  0.30740792  0.48996397     0.30900
H384        H  0.02229186  0.28740538  0.45349539     0.32600
H385        H  0.02768543  0.24179112  0.40040300     0.31600
H386        H  0.15154819  0.29619311  0.44997200     0.35600
H387        H  0.11870405  0.29440184  0.36399454     0.28300
H388        H  0.07291578  0.20120300  0.53280794     0.32500
H389        H  0.05260238  0.19572923  0.44922562     0.35400
H390        H  0.04901377  0.30581765  0.48838149     0.28000
H391        H  0.13392871  0.29975179  0.38891457     0.40900
H392        H  0.17764545  0.22647596  0.45803702     0.30900
H393        H  0.17118800  0.25151492  0.49295873     0.38600
H394        H  0.02383030  0.23617907  0.43078135     0.30400
H395        H  0.13069264  0.18668383  0.42012294     0.30500
H396        H  0.06776510  0.19384312  0.50343944     0.30700
Zr397      Zr  0.21444219  0.52767096  0.99861318     2.17500
O398        O  0.23695864  0.55083987  0.02238291    -0.51600
O399        O  0.19621643  0.51832937  0.04098020    -0.74800
O400        O  0.19391253  0.55713648  0.00558358    -0.81600
O401        O  0.26599846  0.49603031  0.99342087    -0.83400
O402        O  0.16914321  0.55999576  0.97097135    -0.79000
O403        O  0.25152435  0.52062172  0.01664349    -0.90600
O404        O  0.17000687  0.49667020  0.03065130    -0.76600
O405        O  0.17726204  0.52112328  0.98424910    -0.86100
O406        O  0.21129219  0.49437581  0.99800265    -0.85800
O407        O  0.21140997  0.54202483  0.95456875    -0.72500
O408        O  0.24083600  0.51643254  0.96578627    -0.84700
Zr409      Zr  0.19648632  0.49102421  0.90572246     2.26400
Zr410      Zr  0.17440582  0.53454957  0.93991437     2.06300
Zr411      Zr  0.23711733  0.48328503  0.96447524     2.10000
Zr412      Zr  0.17419333  0.48804823  0.98331568     1.78800
O413        O  0.27441160  0.47284419  0.95124969    -0.93500
O414        O  0.13416639  0.49362026  0.98904629    -0.41300
O415        O  0.19986011  0.47642191  0.94977965    -0.77900
O416        O  0.16956774  0.50138901  0.93910409    -0.96600
O417        O  0.20057293  0.52404291  0.90649109    -0.89900
O418        O  0.23391662  0.49691578  0.92026928    -0.92700
C419        C  0.18004972  0.50735057  0.04756667     1.01000
C420        C  0.26753016  0.50924650  0.01084685     1.14000
C421        C  0.17796145  0.56573670  0.99310056     1.04700
O422        O  0.13537549  0.54235753  0.94886103    -0.94900
O423        O  0.14922262  0.52690838  0.90379274    -0.90600
O424        O  0.16084528  0.49992353  0.88448075    -0.83800
C425        C  0.14673703  0.51341911  0.88717639     1.11400
O426        O  0.26065247  0.55677377  0.93422124    -0.96900
Zr427      Zr  0.23761738  0.53003341  0.92189009     1.88900
O428        O  0.21953745  0.49764748  0.86537761    -0.73500
O429        O  0.17908715  0.56138403  0.91000124    -0.52800
O430        O  0.22858031  0.55762683  0.89501087    -0.97400
O431        O  0.27788824  0.52398387  0.92224254    -0.54700
O432        O  0.24498496  0.51992257  0.87612547    -0.74000
C433        C  0.23643882  0.50810524  0.85969102     0.98300
O434        O  0.17631235  0.47176045  0.87307545    -0.62800
O435        O  0.23637147  0.45974743  0.00031230    -0.57600
O436        O  0.21004339  0.45891812  0.90481548    -0.94300
O437        O  0.23630026  0.45489734  0.93753853    -0.92800
O438        O  0.18251791  0.45951028  0.00832370    -0.93100
O439        O  0.15022742  0.46239235  0.96909439    -0.91900
C440        C  0.22469285  0.44898648  0.91736446     1.17200
H441        H  0.21440520  0.48904535  0.01563732     0.33100
H442        H  0.15449364  0.49811535  0.93397427     0.44000
H443        H  0.24487844  0.49119243  0.90846044     0.37500
H444        H  0.21325298  0.55535222  0.95591571     0.34000
H445        H  0.12996993  0.48636830  0.00542019     0.25800
H446        H  0.17835174  0.55621420  0.89138558     0.31700
H447        H  0.23841688  0.55689305  0.87885093     0.37600
H448        H  0.16942555  0.45767591  0.02041287     0.32100
H449        H  0.23834081  0.44768040  0.99085498     0.30900
H450        H  0.27801011  0.46260112  0.96406925     0.32600
H451        H  0.28069011  0.51570726  0.90653336     0.31600
H452        H  0.15799570  0.45692424  0.95321528     0.35600
H453        H  0.18775142  0.46740779  0.85994962     0.28300
H454        H  0.22796136  0.55469379  0.03831191     0.32500
H455        H  0.26934254  0.55992385  0.91769301     0.35400
H456        H  0.25056636  0.46154075  0.01037515     0.28000
H457        H  0.17151655  0.46044248  0.88306163     0.40900
H458        H  0.13304376  0.55471672  0.94025017     0.30900
H459        H  0.13303841  0.50681445  0.99480069     0.38600
H460        H  0.28039914  0.51589942  0.93829185     0.30400
H461        H  0.16500776  0.56859070  0.91196991     0.30500
H462        H  0.23725889  0.56189757  0.01028372     0.30700
Zr463      Zr  0.21906783  0.23256605  0.78793145     2.17500
O464        O  0.24317407  0.20892765  0.76749038    -0.51600
O465        O  0.19827728  0.23923614  0.74656524    -0.74800
O466        O  0.19910691  0.20284535  0.78163820    -0.81600
O467        O  0.26372576  0.26993409  0.78142092    -0.83400
O468        O  0.17665130  0.19976258  0.81847725    -0.79000
O469        O  0.25135967  0.24306794  0.76227626    -0.90600
O470        O  0.17250472  0.26155051  0.75602979    -0.76600
O471        O  0.18213997  0.23802615  0.80398008    -0.86100
O472        O  0.21369498  0.26564777  0.78747438    -0.85800
O473        O  0.21867241  0.21919139  0.83276029    -0.72500
O474        O  0.24659588  0.24563739  0.81801816    -0.84700
Zr475      Zr  0.20236270  0.27049636  0.87975073     2.26400
Zr476      Zr  0.18177011  0.22554189  0.84891172     2.06300
Zr477      Zr  0.24004411  0.27855137  0.81875907     2.10000
Zr478      Zr  0.17679197  0.27086636  0.80336752     1.78800
O479        O  0.27872143  0.28508122  0.83127283    -0.93500
O480        O  0.13747435  0.26251172  0.79799991    -0.41300
O481        O  0.20293548  0.28416163  0.83494248    -0.77900
O482        O  0.17484439  0.25843216  0.84840289    -0.96600
O483        O  0.20865055  0.23771111  0.87999108    -0.89900
O484        O  0.23952167  0.26588714  0.86365228    -0.92700
C485        C  0.18193879  0.24995961  0.73973684     1.01000
C486        C  0.26513642  0.25676656  0.76398843     1.14000
C487        C  0.18413161  0.19411076  0.79555577     1.04700
O488        O  0.14311662  0.21602104  0.84183417    -0.94900
O489        O  0.15741527  0.23343066  0.88591083    -0.90600
O490        O  0.16818589  0.26133270  0.90321148    -0.83800
C491        C  0.15471546  0.24742822  0.90163023     1.11400
O492        O  0.26965614  0.20803490  0.84620765    -0.96900
Zr493      Zr  0.24556911  0.23302831  0.86291325     1.88900
O494        O  0.22542475  0.26384688  0.92016705    -0.73500
O495        O  0.18825338  0.19929498  0.87939023    -0.52800
O496        O  0.24243307  0.20507927  0.89088676    -0.97400
O497        O  0.28487789  0.24236754  0.86364573    -0.54700
O498        O  0.25205315  0.24247331  0.90931839    -0.74000
C499        C  0.24256020  0.25363455  0.92608471     0.98300
O500        O  0.18186157  0.29098173  0.91064181    -0.62800
O501        O  0.23765247  0.30417642  0.78624075    -0.57600
O502        O  0.21524200  0.30272104  0.87901231    -0.94300
O503        O  0.23960164  0.30731218  0.84442604    -0.92800
O504        O  0.18208632  0.30045008  0.77983526    -0.93100
O505        O  0.15031986  0.29450048  0.81875287    -0.91900
C506        C  0.22864141  0.31303646  0.86519401     1.17200
H507        H  0.21586195  0.27083332  0.76954481     0.33100
H508        H  0.15975444  0.26126169  0.85414671     0.44000
H509        H  0.25024761  0.27226188  0.87498229     0.37500
H510        H  0.22122068  0.20590328  0.83185351     0.34000
H511        H  0.13267279  0.26882849  0.78105851     0.25800
H512        H  0.18583813  0.20440130  0.89783803     0.31700
H513        H  0.23035068  0.20789329  0.90405890     0.37600
H514        H  0.17192897  0.29983749  0.76396733     0.32100
H515        H  0.22680438  0.31310702  0.79418127     0.30900
H516        H  0.28198153  0.29738888  0.82302318     0.32600
H517        H  0.28500455  0.25506452  0.87151329     0.31600
H518        H  0.15426819  0.29660623  0.83803592     0.35600
H519        H  0.19325846  0.29673902  0.92258233     0.28300
H520        H  0.23486623  0.20426194  0.75148426     0.32500
H521        H  0.28070072  0.20571631  0.86084296     0.35400
H522        H  0.25231808  0.31055446  0.78749997     0.28000
H523        H  0.17595868  0.30132855  0.89932830     0.40900
H524        H  0.13851088  0.22236212  0.82484722     0.30900
H525        H  0.13767488  0.24909507  0.79328948     0.38600
H526        H  0.28891691  0.24425007  0.84432772     0.30400
H527        H  0.17528319  0.19096049  0.87636755     0.30500
H528        H  0.24326858  0.19839272  0.78053503     0.30700
Zr529      Zr  0.35480502  0.24171373  0.15915351     2.17500
O530        O  0.37429673  0.21836385  0.13180493    -0.51600
O531        O  0.33196475  0.24814013  0.11858111    -0.74800
O532        O  0.33714250  0.21107444  0.15944884    -0.81600
O533        O  0.40442977  0.27499327  0.15152760    -0.83400
O534        O  0.31386813  0.20839368  0.19557710    -0.79000
O535        O  0.38974116  0.24797757  0.13553763    -0.90600
O536        O  0.30851035  0.27221895  0.12787060    -0.76600
O537        O  0.31831787  0.24906829  0.17525007    -0.86100
O538        O  0.35199981  0.27488322  0.15702066    -0.85800
O539        O  0.35418877  0.22953950  0.20484959    -0.72500
O540        O  0.38378944  0.25349959  0.18839328    -0.84700
Zr541      Zr  0.34242472  0.28323316  0.24819524     2.26400
Zr542      Zr  0.31758972  0.23747571  0.22086564     2.06300
Zr543      Zr  0.38035229  0.28666449  0.18675382     2.10000
Zr544      Zr  0.31567370  0.28223367  0.17390741     1.78800
O545        O  0.42011945  0.29285191  0.19333744    -0.93500
O546        O  0.27566000  0.27556577  0.17390307    -0.41300
O547        O  0.34402630  0.29516496  0.20271392    -0.77900
O548        O  0.31328621  0.27082570  0.21953924    -0.96600
O549        O  0.34564874  0.25006681  0.25006999    -0.89900
O550        O  0.37897946  0.27564900  0.23243734    -0.92700
C551        C  0.31624595  0.25963543  0.11195571     1.01000
C552        C  0.40483620  0.26071348  0.13598670     1.14000
C553        C  0.32317948  0.20185651  0.17406397     1.04700
O554        O  0.27767272  0.23386184  0.21214264    -0.94900
O555        O  0.29899853  0.24609260  0.26253993    -0.90600
O556        O  0.31308110  0.27330871  0.27902804    -0.83800
C557        C  0.29961210  0.25938360  0.27993919     1.11400
O558        O  0.40530051  0.21664080  0.21922490    -0.96900
Zr559      Zr  0.38205181  0.24264699  0.23429089     1.88900
O560        O  0.36303678  0.27673399  0.28981714    -0.73500
O561        O  0.31925524  0.21129870  0.25248886    -0.52800
O562        O  0.37760795  0.21452866  0.26166321    -0.97400
O563        O  0.42154448  0.25124612  0.23622288    -0.54700
O564        O  0.38562217  0.25185348  0.28163763    -0.74000
C565        C  0.37736448  0.26436089  0.29741338     0.98300
O566        O  0.31924681  0.30918173  0.26405486    -0.62800
O567        O  0.37659712  0.31202184  0.15408129    -0.57600
O568        O  0.36295899  0.31277156  0.25113499    -0.94300
O569        O  0.38589354  0.31411751  0.21437244    -0.92800
O570        O  0.32007707  0.30952968  0.14484201    -0.93100
O571        O  0.29429859  0.30929744  0.18892002    -0.91900
C572        C  0.37785636  0.32093163  0.23638080     1.17200
H573        H  0.35413132  0.27942444  0.13874058     0.33100
H574        H  0.29878680  0.27427573  0.22666255     0.44000
H575        H  0.39035505  0.28152671  0.24340756     0.37500
H576        H  0.35640327  0.21617117  0.20495344     0.34000
H577        H  0.26991240  0.28157231  0.15716285     0.25800
H578        H  0.30526705  0.20421432  0.24934266     0.31700
H579        H  0.36560528  0.21758276  0.27482800     0.37600
H580        H  0.30569585  0.31061347  0.13490783     0.32100
H581        H  0.36796049  0.32175734  0.16379104     0.30900
H582        H  0.42342103  0.30370605  0.18153297     0.32600
H583        H  0.42253003  0.26109314  0.25023511     0.31600
H584        H  0.29711387  0.31001073  0.20869602     0.35600
H585        H  0.32182201  0.31945810  0.25095530     0.28300
H586        H  0.36309233  0.21343972  0.11884464     0.32500
H587        H  0.41697780  0.21509256  0.23333550     0.35400
H588        H  0.39188094  0.31725724  0.15241347     0.28000
H589        H  0.30361045  0.30536737  0.26034693     0.40900
H590        H  0.27316544  0.22302215  0.22338010     0.30900
H591        H  0.27463604  0.26202048  0.17020826     0.38600
H592        H  0.42440431  0.25781656  0.21886031     0.30400
H593        H  0.33133510  0.20312283  0.24549302     0.30500
H594        H  0.37770840  0.20785501  0.14424942     0.30700
Zr595      Zr  0.35282326  0.02467973  0.12943607     2.17500
O596        O  0.37180834  0.04459259  0.16232142    -0.51600
O597        O  0.33088995  0.01564118  0.16929941    -0.74800
O598        O  0.33655746  0.05603837  0.13262817    -0.81600
O599        O  0.40207245  0.99082587  0.13101297    -0.83400
O600        O  0.31092351  0.05978401  0.09920499    -0.79000
O601        O  0.38861892  0.01724419  0.15028852    -0.90600
O602        O  0.30940631  0.99043804  0.15983371    -0.76600
O603        O  0.31581226  0.01724888  0.11552407    -0.86100
O604        O  0.35071179  0.99148056  0.12753382    -0.85800
O605        O  0.34985797  0.03933543  0.08554821    -0.72500
O606        O  0.38065453  0.01515947  0.09685893    -0.84700
Zr607      Zr  0.33684292  0.98811036  0.03613985     2.26400
Zr608      Zr  0.31265944  0.03152682  0.07189160     2.06300
Zr609      Zr  0.37775503  0.98198767  0.09450970     2.10000
Zr610      Zr  0.31403614  0.98405629  0.11227428     1.78800
O611        O  0.41697349  0.97903096  0.08143103    -0.93500
O612        O  0.27410923  0.98927242  0.11963443    -0.41300
O613        O  0.34106155  0.97360263  0.07979302    -0.77900
O614        O  0.30921559  0.99818270  0.06875820    -0.96600
O615        O  0.33919140  0.02133250  0.03854818    -0.89900
O616        O  0.37385107  0.99544129  0.05057048    -0.92700
C617        C  0.31662865  0.00301740  0.17597626     1.01000
C618        C  0.40326956  0.00419538  0.14808361     1.14000
C619        C  0.32183839  0.06582792  0.11984696     1.04700
O620        O  0.27414825  0.03416464  0.08786913    -0.94900
O621        O  0.28962415  0.02434579  0.03366963    -0.90600
O622        O  0.30497580  0.00021561  0.01021355    -0.83800
C623        C  0.28990796  0.01285877  0.01382603     1.11400
O624        O  0.39728442  0.05588128  0.06654998    -0.96900
Zr625      Zr  0.37619752  0.02844575  0.05246790     1.88900
O626        O  0.35720702  0.99624700  0.99491645    -0.73500
O627        O  0.31052910  0.05819878  0.04124966    -0.52800
O628        O  0.36623762  0.05608676  0.02612881    -0.97400
O629        O  0.41659345  0.02353656  0.05026144    -0.54700
O630        O  0.38160574  0.01941905  0.00528031    -0.74000
C631        C  0.37285824  0.00777724  0.98857369     0.98300
O632        O  0.31390328  0.96299080  0.01744178    -0.62800
O633        O  0.37890502  0.95412363  0.12294673    -0.57600
O634        O  0.35731126  0.95853709  0.02889953    -0.94300
O635        O  0.38155282  0.95584326  0.06421498    -0.92800
O636        O  0.32347894  0.95461315  0.13429176    -0.93100
O637        O  0.28987456  0.95945876  0.09490469    -0.91900
C638        C  0.37284624  0.94984398  0.04211181     1.17200
H639        H  0.35384823  0.98595619  0.14501649     0.33100
H640        H  0.29442857  0.99482693  0.06257900     0.44000
H641        H  0.38497808  0.99030432  0.03845143     0.37500
H642        H  0.35197766  0.05267753  0.08646870     0.34000
H643        H  0.26998375  0.98066287  0.13457725     0.25800
H644        H  0.29672853  0.06493974  0.04662745     0.31700
H645        H  0.37591535  0.05568518  0.00980716     0.37600
H646        H  0.33108396  0.94719444  0.12005177     0.32100
H647        H  0.39420684  0.94904332  0.12040762     0.30900
H648        H  0.42163295  0.96659790  0.08820204     0.32600
H649        H  0.41856492  0.01213306  0.03920573     0.31600
H650        H  0.29568875  0.95686634  0.07645759     0.35600
H651        H  0.31562111  0.95248329  0.03036765     0.28300
H652        H  0.36015258  0.04845102  0.17550198     0.32500
H653        H  0.40637448  0.05952681  0.05057478     0.35400
H654        H  0.37878025  0.95875384  0.14187003     0.28000
H655        H  0.29812695  0.96690428  0.01999414     0.40900
H656        H  0.26865873  0.04608917  0.08012788     0.30900
H657        H  0.27312898  0.00185302  0.12782914     0.38600
H658        H  0.42089160  0.01969180  0.06887684     0.30400
H659        H  0.32294455  0.06647855  0.04687736     0.30500
H660        H  0.37592449  0.05613115  0.15241823     0.30700
Zr661      Zr  0.45493425  0.23879909  0.62964706     2.17500
O662        O  0.43844557  0.21745273  0.66276400    -0.51600
O663        O  0.47847845  0.24485263  0.66952078    -0.74800
O664        O  0.46973502  0.20704803  0.62669442    -0.81600
O665        O  0.40857624  0.27441108  0.63927429    -0.83400
O666        O  0.49238378  0.20377198  0.59014494    -0.79000
O667        O  0.41884542  0.24498060  0.65073706    -0.90600
O668        O  0.50435605  0.26665922  0.65841918    -0.76600
O669        O  0.49118156  0.24394727  0.61134327    -0.86100
O670        O  0.46117805  0.27165039  0.63207626    -0.85800
O671        O  0.45267105  0.22692073  0.58395234    -0.72500
O672        O  0.42625947  0.25292650  0.60213683    -0.84700
Zr673      Zr  0.46802777  0.28023050  0.54016954     2.26400
Zr674      Zr  0.48911087  0.23292299  0.56563853     2.06300
Zr675      Zr  0.43307299  0.28570239  0.60413791     2.10000
Zr676      Zr  0.49721863  0.27677897  0.61272242     1.78800
O677        O  0.39431743  0.29610407  0.60017915    -0.93500
O678        O  0.53582919  0.26560826  0.61173917    -0.41300
O679        O  0.46923487  0.29204026  0.58572508    -0.77900
O680        O  0.49668785  0.26574120  0.56722490    -0.96600
O681        O  0.46133109  0.24745775  0.53779859    -0.89900
O682        O  0.43172652  0.27481843  0.55847166    -0.92700
C683        C  0.49553329  0.25510788  0.67509818     1.01000
C684        C  0.40552697  0.25903224  0.65201851     1.14000
C685        C  0.48297176  0.19740253  0.61161623     1.04700
O686        O  0.52876886  0.22654791  0.57280731    -0.94900
O687        O  0.50935217  0.24118373  0.52529282    -0.90600
O688        O  0.49795477  0.26960250  0.51009165    -0.83800
C689        C  0.51063434  0.25508620  0.50899358     1.11400
O690        O  0.39670537  0.22031871  0.57186604    -0.96900
Zr691      Zr  0.42513724  0.24225620  0.55620848     1.88900
O692        O  0.44596478  0.27444392  0.49975011    -0.73500
O693        O  0.48326870  0.20795101  0.53286722    -0.52800
O694        O  0.42762378  0.21256732  0.53238612    -0.97400
O695        O  0.38672330  0.25388631  0.55353074    -0.54700
O696        O  0.42101650  0.25145659  0.50892742    -0.74000
C697        C  0.43002508  0.26343577  0.49285309     0.98300
O698        O  0.49166385  0.30537587  0.52273376    -0.62800
O699        O  0.44133022  0.30932016  0.63820533    -0.57600
O700        O  0.44785906  0.31004322  0.53705119    -0.94300
O701        O  0.42760673  0.31305687  0.57592814    -0.92800
O702        O  0.49737160  0.30560023  0.63883679    -0.93100
O703        O  0.52263477  0.30076936  0.59614735    -0.91900
C704        C  0.43411187  0.31890998  0.55256896     1.17200
H705        H  0.46011636  0.27615527  0.65049504     0.33100
H706        H  0.51132082  0.26836124  0.55980388     0.44000
H707        H  0.42039263  0.28142073  0.54823231     0.37500
H708        H  0.44926252  0.21374938  0.58372697     0.34000
H709        H  0.54351163  0.27266090  0.62626656     0.25800
H710        H  0.49809586  0.20185309  0.53103852     0.31700
H711        H  0.43830711  0.21484820  0.51736179     0.37600
H712        H  0.48714097  0.30327381  0.65429534     0.32100
H713        H  0.43974937  0.32137888  0.62855941     0.30900
H714        H  0.39262686  0.30598324  0.61405665     0.32600
H715        H  0.38659345  0.26296906  0.53835298     0.31600
H716        H  0.51423288  0.30706965  0.58139534     0.35600
H717        H  0.48882676  0.31619231  0.53472315     0.28300
H718        H  0.45110948  0.21250657  0.67361667     0.32500
H719        H  0.38776608  0.21712843  0.55557891     0.35400
H720        H  0.42841006  0.30892863  0.65082278     0.28000
H721        H  0.50719486  0.30167156  0.52738738     0.40900
H722        H  0.53264366  0.21699756  0.55907599     0.30900
H723        H  0.53512425  0.25265887  0.61874286     0.38600
H724        H  0.38481960  0.26160025  0.57003106     0.30400
H725        H  0.47384707  0.19862679  0.54234597     0.30500
H726        H  0.43278963  0.20665881  0.65228596     0.30700
Zr727      Zr  0.45131412  0.02172893  0.65454246     2.17500
O728        O  0.43063997  0.04370015  0.62598992    -0.51600
O729        O  0.47471338  0.01453021  0.61468137    -0.74800
O730        O  0.46833871  0.05263316  0.65200586    -0.81600
O731        O  0.40243526  0.98809476  0.65202328    -0.83400
O732        O  0.49260156  0.05625900  0.68689570    -0.79000
O733        O  0.41696065  0.01343553  0.63072820    -0.90600
O734        O  0.50005570  0.99236951  0.62632369    -0.76600
O735        O  0.48804966  0.01498102  0.67040998    -0.86100
O736        O  0.45426140  0.98855029  0.65544380    -0.85800
O737        O  0.45257731  0.03585436  0.69900775    -0.72500
O738        O  0.42318455  0.01111848  0.68612255    -0.84700
Zr739      Zr  0.46672705  0.98460502  0.74756724     2.26400
Zr740      Zr  0.48947211  0.02861248  0.71470610     2.06300
Zr741      Zr  0.42718671  0.97799867  0.68774692     2.10000
Zr742      Zr  0.49081888  0.98178733  0.67159539     1.78800
O743        O  0.38792719  0.97126261  0.69701594    -0.93500
O744        O  0.53155679  0.98409443  0.67048986    -0.41300
O745        O  0.46388201  0.97014749  0.70357017    -0.77900
O746        O  0.49436401  0.99538353  0.71541597    -0.96600
O747        O  0.46260201  0.01770518  0.74692573    -0.89900
O748        O  0.42962421  0.99102908  0.73227143    -0.92700
C749        C  0.49164076  0.00394767  0.60928746     1.01000
C750        C  0.40170492  0.00100243  0.63400590     1.14000
C751        C  0.48270058  0.06220195  0.66549704     1.04700
O752        O  0.52786214  0.03718845  0.70378782    -0.94900
O753        O  0.51385210  0.01973931  0.75134249    -0.90600
O754        O  0.50189123  0.99255944  0.77008106    -0.83800
C755        C  0.51611311  0.00592035  0.76761751     1.11400
O756        O  0.40215515  0.04982312  0.71602839    -0.96900
Zr757      Zr  0.42575985  0.02394287  0.73091794     1.88900
O758        O  0.44672224  0.99361972  0.78864184    -0.73500
O759        O  0.48586662  0.05403815  0.74719888    -0.52800
O760        O  0.43254014  0.05151637  0.75856398    -0.97400
O761        O  0.38591273  0.01658320  0.73334415    -0.54700
O762        O  0.42077518  0.01557704  0.77826823    -0.74000
C763        C  0.43059848  0.00462155  0.79514336     0.98300
O764        O  0.48735348  0.96265836  0.77619279    -0.62800
O765        O  0.43063243  0.95119079  0.65766229    -0.57600
O766        O  0.44770583  0.95452253  0.75234295    -0.94300
O767        O  0.42206037  0.95219117  0.71848043    -0.92800
O768        O  0.48240468  0.95545096  0.64217354    -0.93100
O769        O  0.51026890  0.95436640  0.68905697    -0.91900
C770        C  0.43154067  0.94618608  0.74012023     1.17200
H771        H  0.45164712  0.98331733  0.63764460     0.33100
H772        H  0.50932825  0.99199954  0.72084384     0.44000
H773        H  0.41856066  0.98553782  0.74414453     0.37500
H774        H  0.45024218  0.04917032  0.69797607     0.34000
H775        H  0.53612668  0.97704244  0.65411543     0.25800
H776        H  0.50148522  0.05779518  0.75116317     0.31700
H777        H  0.43862778  0.06092838  0.74583336     0.37600
H778        H  0.49594612  0.95394023  0.63074793     0.32100
H779        H  0.41989524  0.94192300  0.66492893     0.30900
H780        H  0.38422286  0.96062693  0.68503785     0.32600
H781        H  0.38453726  0.00718286  0.74800835     0.31600
H782        H  0.50898409  0.95540453  0.70906029     0.35600
H783        H  0.47713849  0.95963624  0.79144117     0.28300
H784        H  0.44150839  0.04846160  0.61244869     0.32500
H785        H  0.39341033  0.05354036  0.73225185     0.35400
H786        H  0.42390905  0.95531571  0.64027354     0.28000
H787        H  0.48866275  0.95098145  0.76559996     0.40900
H788        H  0.53404917  0.02613112  0.69438339     0.30900
H789        H  0.53458920  0.99729211  0.66584279     0.38600
H790        H  0.38278253  0.00957627  0.71646671     0.30400
H791        H  0.47960699  0.06461790  0.73668149     0.30500
H792        H  0.42709382  0.05450337  0.63776325     0.30700
Zr793      Zr  0.58972725  0.03062046  0.28460354     2.17500
O794        O  0.56702083  0.05331168  0.25984759    -0.51600
O795        O  0.60823179  0.02044443  0.24311870    -0.74800
O796        O  0.60978850  0.06000528  0.27529396    -0.81600
O797        O  0.54171580  0.99533035  0.28511463    -0.83400
O798        O  0.63476880  0.06358630  0.30955630    -0.79000
O799        O  0.55518322  0.02078943  0.26306790    -0.90600
O800        O  0.63202381  0.99677237  0.25328250    -0.76600
O801        O  0.62703879  0.02472677  0.29906379    -0.86100
O802        O  0.59347347  0.99743408  0.28755655    -0.85800
O803        O  0.59229708  0.04602518  0.32781148    -0.72500
O804        O  0.56274200  0.02005169  0.31742977    -0.84700
Zr805      Zr  0.60733295  0.99620736  0.37910823     2.26400
Zr806      Zr  0.62953808  0.03915548  0.34253960     2.06300
Zr807      Zr  0.56726226  0.98693311  0.32105268     2.10000
Zr808      Zr  0.63075719  0.99178633  0.30222873     1.78800
O809        O  0.53018143  0.98195817  0.34046833    -0.93500
O810        O  0.66956157  0.99960637  0.29177859    -0.41300
O811        O  0.60464659  0.98107052  0.33570113    -0.77900
O812        O  0.63482316  0.00606511  0.34592983    -0.96600
O813        O  0.60319856  0.02920607  0.37624318    -0.89900
O814        O  0.56988096  0.00152381  0.36440466    -0.92700
C815        C  0.62269930  0.00799943  0.23632315     1.01000
C816        C  0.54052355  0.00793014  0.26663806     1.14000
C817        C  0.62592855  0.06873759  0.28707476     1.04700
O818        O  0.66903709  0.04422087  0.33254591    -0.94900
O819        O  0.65334735  0.03353872  0.38064057    -0.90600
O820        O  0.64130034  0.00710177  0.40133586    -0.83800
C821        C  0.65507223  0.02069388  0.39852857     1.11400
O822        O  0.54444009  0.06160452  0.34573362    -0.96900
Zr823      Zr  0.56600846  0.03458595  0.36089132     1.88900
O824        O  0.58467165  0.00403245  0.41933749    -0.73500
O825        O  0.62731175  0.06771272  0.36913472    -0.52800
O826        O  0.57527479  0.06140895  0.38905258    -0.97400
O827        O  0.52558931  0.02968634  0.36107348    -0.54700
O828        O  0.55790542  0.02494632  0.40702393    -0.74000
C829        C  0.56715671  0.01399419  0.42434081     0.98300
O830        O  0.62367800  0.97337286  0.41019870    -0.62800
O831        O  0.56280283  0.96118759  0.28930991    -0.57600
O832        O  0.59619547  0.96348576  0.38082209    -0.94300
O833        O  0.57178806  0.95787106  0.34652603    -0.92800
O834        O  0.62437242  0.96015909  0.28601869    -0.93100
O835        O  0.65818655  0.96963775  0.31980205    -0.91900
C836        C  0.58321868  0.95260912  0.36734953     1.17200
H837        H  0.59036472  0.99145286  0.27040434     0.33100
H838        H  0.64983205  0.00314008  0.35183907     0.44000
H839        H  0.55910809  0.99598755  0.37657112     0.37500
H840        H  0.59028747  0.05930918  0.32561892     0.34000
H841        H  0.67415791  0.99048429  0.27774564     0.25800
H842        H  0.64258272  0.07306587  0.36810374     0.31700
H843        H  0.56270948  0.06252245  0.40209644     0.37600
H844        H  0.62873683  0.96039863  0.26662972     0.32100
H845        H  0.57682658  0.95386561  0.29092678     0.30900
H846        H  0.52177446  0.97516122  0.32627166     0.32600
H847        H  0.52337407  0.01798701  0.37144231     0.31600
H848        H  0.65305659  0.96690570  0.33852165     0.35600
H849        H  0.63970263  0.97220747  0.40521910     0.28300
H850        H  0.57582540  0.05669278  0.24350978     0.32500
H851        H  0.53596268  0.06587445  0.36186604     0.35400
H852        H  0.55112036  0.95314621  0.29748684     0.28000
H853        H  0.62354137  0.97931562  0.42833123     0.40900
H854        H  0.67495203  0.03169050  0.32803276     0.30900
H855        H  0.66873920  0.01165519  0.28194945     0.38600
H856        H  0.52185233  0.02632164  0.34211215     0.30400
H857        H  0.61793433  0.07630907  0.35820334     0.30500
H858        H  0.56683069  0.06469265  0.27120719     0.30700
Zr859      Zr  0.58807129  0.73479853  0.50068993     2.17500
O860        O  0.56543889  0.71255345  0.52632841    -0.51600
O861        O  0.60873021  0.74176167  0.54188266    -0.74800
O862        O  0.60629787  0.70407095  0.50528773    -0.81600
O863        O  0.54152201  0.77178799  0.50359655    -0.83400
O864        O  0.63030697  0.70102265  0.46988910    -0.79000
O865        O  0.55314551  0.74433754  0.52207014    -0.90600
O866        O  0.63526339  0.76310935  0.53117927    -0.76600
O867        O  0.62512669  0.73972242  0.48448940    -0.86100
O868        O  0.59390919  0.76784070  0.50089893    -0.85800
O869        O  0.58848501  0.72096601  0.45632499    -0.72500
O870        O  0.56109743  0.74840986  0.47044239    -0.84700
Zr871      Zr  0.60507156  0.77218023  0.40856889     2.26400
Zr872      Zr  0.62539379  0.72697090  0.43964814     2.06300
Zr873      Zr  0.56791189  0.78132003  0.46935395     2.10000
Zr874      Zr  0.63076559  0.77254800  0.48436713     1.78800
O875        O  0.53036805  0.79125272  0.45630361    -0.93500
O876        O  0.67048291  0.76470732  0.48779050    -0.41300
O877        O  0.60503318  0.78638809  0.45276878    -0.77900
O878        O  0.63268137  0.75985375  0.43966574    -0.96600
O879        O  0.59844942  0.73941488  0.40872095    -0.89900
O880        O  0.56789542  0.76793528  0.42499003    -0.92700
C881        C  0.62548494  0.75213259  0.54794135     1.01000
C882        C  0.53915456  0.75792470  0.51980075     1.14000
C883        C  0.62156781  0.69520197  0.49203714     1.04700
O884        O  0.66330499  0.71527380  0.44664133    -0.94900
O885        O  0.65013499  0.73477031  0.40275388    -0.90600
O886        O  0.63957958  0.76291275  0.38589849    -0.83800
C887        C  0.65291938  0.74885487  0.38711057     1.11400
O888        O  0.53809979  0.70995650  0.44390028    -0.96900
Zr889      Zr  0.56167263  0.73500735  0.42634067     1.88900
O890        O  0.58089570  0.76579063  0.36967549    -0.73500
O891        O  0.61704570  0.70112987  0.40922793    -0.52800
O892        O  0.56715993  0.70757301  0.39792339    -0.97400
O893        O  0.52177818  0.74246678  0.42654442    -0.54700
O894        O  0.55374132  0.74502886  0.38082143    -0.74000
C895        C  0.56339588  0.75610266  0.36416969     0.98300
O896        O  0.62256657  0.79018812  0.37216083    -0.62800
O897        O  0.57095441  0.80547945  0.50391084    -0.57600
O898        O  0.59490057  0.80523705  0.40967753    -0.94300
O899        O  0.57038174  0.81044527  0.44390315    -0.92800
O900        O  0.62397370  0.80210107  0.50731388    -0.93100
O901        O  0.65845988  0.79612762  0.47265770    -0.91900
C902        C  0.58188520  0.81600426  0.42338164     1.17200
H903        H  0.59178792  0.77301764  0.51883729     0.33100
H904        H  0.64783272  0.76259597  0.43406650     0.44000
H905        H  0.55703932  0.77431301  0.41378685     0.37500
H906        H  0.58571766  0.70771697  0.45739081     0.34000
H907        H  0.67270727  0.75986541  0.50643933     0.25800
H908        H  0.62122943  0.70569324  0.39092845     0.31700
H909        H  0.55366506  0.70697833  0.38626392     0.37600
H910        H  0.62043936  0.79872650  0.52634608     0.32100
H911        H  0.58128101  0.81486691  0.49611029     0.30900
H912        H  0.52772423  0.80290216  0.46661190     0.32600
H913        H  0.52045693  0.75419293  0.41600229     0.31600
H914        H  0.65987950  0.79536192  0.45265695     0.35600
H915        H  0.61006339  0.79581241  0.36172930     0.28300
H916        H  0.57536281  0.70747320  0.54067994     0.32500
H917        H  0.52959998  0.70521781  0.42809651     0.35400
H918        H  0.55613540  0.81171934  0.50393394     0.28000
H919        H  0.63016303  0.80082498  0.38103472     0.40900
H920        H  0.66489309  0.70471001  0.43383770     0.30900
H921        H  0.67240907  0.75365548  0.47599040     0.38600
H922        H  0.51852863  0.74620975  0.44549507     0.30400
H923        H  0.62845817  0.69152144  0.41354255     0.30500
H924        H  0.56276144  0.70200691  0.51378753     0.30700
Zr925      Zr  0.71265769  0.02643475  0.99541617     2.17500
O926        O  0.73320779  0.05077507  0.01930176    -0.51600
O927        O  0.69060510  0.01796452  0.03501597    -0.74800
O928        O  0.69072743  0.05542738  0.99893569    -0.81600
O929        O  0.76290972  0.99412252  0.00233659    -0.83400
O930        O  0.66780790  0.05668726  0.96228939    -0.79000
O931        O  0.74542565  0.01872793  0.02266297    -0.90600
O932        O  0.66589340  0.99534912  0.02328452    -0.76600
O933        O  0.67697134  0.01882586  0.97716528    -0.86100
O934        O  0.71057008  0.99316595  0.99561289    -0.85800
O935        O  0.71273467  0.03989426  0.95064069    -0.72500
O936        O  0.74261678  0.01533753  0.96712286    -0.84700
Zr937      Zr  0.70453147  0.98761907  0.90351356     2.26400
Zr938      Zr  0.67725763  0.03127689  0.93210940     2.06300
Zr939      Zr  0.73982656  0.98207359  0.96650284     2.10000
Zr940      Zr  0.67499144  0.98571039  0.97722061     1.78800
O941        O  0.77883628  0.97692334  0.95389184    -0.93500
O942        O  0.63460422  0.99084022  0.97685571    -0.41300
O943        O  0.70411144  0.97399597  0.94815373    -0.77900
O944        O  0.67412751  0.99799228  0.93207363    -0.96600
O945        O  0.70687819  0.02077685  0.90316199    -0.89900
O946        O  0.74024399  0.99491240  0.92176530    -0.92700
C947        C  0.67431587  0.00686789  0.04038389     1.01000
C948        C  0.76169679  0.00710320  0.02010164     1.14000
C949        C  0.67519581  0.06329033  0.98476240     1.04700
O950        O  0.63681604  0.03569512  0.93350002    -0.94900
O951        O  0.65751073  0.02238365  0.89144156    -0.90600
O952        O  0.67212519  0.99508033  0.87615871    -0.83800
C953        C  0.65782912  0.00841542  0.87524816     1.11400
O954        O  0.76282454  0.05428666  0.94180863    -0.96900
Zr955      Zr  0.74232975  0.02812903  0.92236071     1.88900
O956        O  0.72998502  0.99435745  0.86571524    -0.73500
O957        O  0.68277578  0.05931037  0.90488940    -0.52800
O958        O  0.73645503  0.05592525  0.89466552    -0.97400
O959        O  0.78269880  0.02265969  0.92276757    -0.54700
O960        O  0.75186206  0.01903180  0.87653840    -0.74000
C961        C  0.74552129  0.00619790  0.86020191     0.98300
O962        O  0.68702948  0.96688204  0.87048762    -0.62800
O963        O  0.74027851  0.95842828  0.00212473    -0.57600
O964        O  0.71913657  0.95592951  0.90556805    -0.94300
O965        O  0.74155522  0.95251614  0.94231539    -0.92800
O966        O  0.68269438  0.95785826  0.00407032    -0.93100
O967        O  0.65328026  0.95934496  0.96064031    -0.91900
C968        C  0.73216451  0.94618095  0.92076313     1.17200
H969        H  0.71232553  0.98819384  0.01375294     0.33100
H970        H  0.65986992  0.99422470  0.92473054     0.44000
H971        H  0.75220512  0.98935539  0.91132397     0.37500
H972        H  0.71393149  0.05330342  0.95171312     0.34000
H973        H  0.62875291  0.98289175  0.99171397     0.25800
H974        H  0.68133384  0.05509335  0.88584046     0.31700
H975        H  0.72683898  0.05177321  0.87945830     0.37600
H976        H  0.66949340  0.95649973  0.01609296     0.32100
H977        H  0.72966558  0.94874307  0.99588907     0.30900
H978        H  0.78516371  0.96930045  0.96883090     0.32600
H979        H  0.78498211  0.01106893  0.91221021     0.31600
H980        H  0.65997814  0.95638833  0.94275118     0.35600
H981        H  0.69939979  0.96212447  0.85899300     0.28300
H982        H  0.72341165  0.05461848  0.03454108     0.32500
H983        H  0.77239221  0.05910811  0.92694613     0.35400
H984        H  0.75522750  0.95249482  0.00066066     0.28000
H985        H  0.68164335  0.95592416  0.88087491     0.40900
H986        H  0.63101073  0.02416380  0.94205086     0.30900
H987        H  0.63265129  0.00374390  0.98360951     0.38600
H988        H  0.78613414  0.01903584  0.94173145     0.30400
H989        H  0.66916561  0.06692065  0.90812459     0.30500
H990        H  0.73344240  0.06160025  0.00677569     0.30700
Zr991      Zr  0.72024026  0.73145547  0.78812514     2.17500
O992        O  0.74368117  0.70635190  0.77042832    -0.51600
O993        O  0.70198826  0.73968601  0.74591303    -0.74800
O994        O  0.69820670  0.70334492  0.77895797    -0.81600
O995        O  0.76681441  0.76700544  0.78571604    -0.83400
O996        O  0.67212472  0.70096796  0.81237823    -0.79000
O997        O  0.75464221  0.74072443  0.76474921    -0.90600
O998        O  0.67659734  0.76224450  0.75588977    -0.76600
O999        O  0.68284248  0.73824955  0.80196513    -0.86100
O1000       O  0.71680232  0.76467051  0.78918843    -0.85800
O1001       O  0.71578609  0.71687779  0.83171548    -0.72500
O1002       O  0.74708503  0.74223857  0.82068694    -0.84700
Zr1003     Zr  0.70223474  0.76797302  0.88064645     2.26400
Zr1004     Zr  0.67871013  0.72479115  0.84599360     2.06300
Zr1005     Zr  0.74266739  0.77540528  0.82266239     2.10000
Zr1006     Zr  0.67961847  0.77119018  0.80326505     1.78800
O1007       O  0.78109292  0.77892513  0.83845398    -0.93500
O1008       O  0.63996647  0.76488760  0.79548611    -0.41300
O1009       O  0.70534692  0.78254712  0.83677992    -0.77900
O1010       O  0.67479835  0.75803075  0.84764381    -0.96600
O1011       O  0.70519756  0.73480449  0.87929850    -0.89900
O1012       O  0.73950134  0.76137528  0.86639250    -0.92700
C1013       C  0.68616692  0.75094091  0.73931484     1.01000
C1014       C  0.76876597  0.75410094  0.76795137     1.14000
C1015       C  0.68132144  0.69534371  0.79033198     1.04700
O1016       O  0.63873093  0.72071454  0.83813131    -0.94900
O1017       O  0.65553501  0.73159091  0.88479400    -0.90600
O1018       O  0.66834026  0.75826601  0.90397460    -0.83800
C1019       C  0.65414428  0.74489628  0.90202229     1.11400
O1020       O  0.76200530  0.70005095  0.85019023    -0.96900
Zr1021     Zr  0.74217443  0.72814889  0.86427103     1.88900
O1022       O  0.72494871  0.76078482  0.92098288    -0.73500
O1023       O  0.68123283  0.69563063  0.87136351    -0.52800
O1024       O  0.73224608  0.70182164  0.89317616    -0.97400
O1025       O  0.78282746  0.73068732  0.86659394    -0.54700
O1026       O  0.74965369  0.73793465  0.90991568    -0.74000
C1027       C  0.74146417  0.74981185  0.92651324     0.98300
O1028       O  0.68006915  0.78836180  0.90989912    -0.62800
O1029       O  0.74563921  0.80294851  0.79373932    -0.57600
O1030       O  0.71687666  0.79984873  0.88271565    -0.94300
O1031       O  0.74225430  0.80391352  0.84899338    -0.92800
O1032       O  0.68902837  0.80012484  0.77994785    -0.93100
O1033       O  0.65434001  0.79655271  0.81554803    -0.91900
C1034       C  0.73123072  0.80978978  0.86966108     1.17200
H1035       H  0.72001118  0.77013363  0.77166614     0.33100
H1036       H  0.65989263  0.76138848  0.85351748     0.44000
H1037       H  0.75053807  0.76681021  0.87829548     0.37500
H1038       H  0.71733965  0.70352640  0.82997835     0.34000
H1039       H  0.63967398  0.75364697  0.78383241     0.25800
H1040       H  0.66667902  0.68940890  0.86809205     0.31700
H1041       H  0.74575939  0.69948890  0.90436550     0.37600
H1042       H  0.69814718  0.80719783  0.79318234     0.32100
H1043       H  0.76164164  0.80653457  0.79470977     0.30900
H1044       H  0.78846432  0.76691934  0.83401843     0.32600
H1045       H  0.78720718  0.72273925  0.88220192     0.31600
H1046       H  0.64838469  0.79307902  0.83363470     0.35600
H1047       H  0.69054827  0.79294434  0.92395589     0.28300
H1048       H  0.73701978  0.70301023  0.75268519     0.32500
H1049       H  0.76080677  0.70000643  0.83014284     0.35400
H1050       H  0.74358474  0.79839480  0.77494368     0.28000
H1051       H  0.67622344  0.79943858  0.89876397     0.40900
H1052       H  0.63624014  0.72517717  0.81933650     0.30900
H1053       H  0.63414157  0.76052668  0.81321520     0.38600
H1054       H  0.78560803  0.74358201  0.87288743     0.30400
H1055       H  0.69224709  0.68791540  0.86135220     0.30500
H1056       H  0.74074414  0.69546631  0.78232685     0.30700
Zr1057     Zr  0.85284100  0.73601143  0.15858128     2.17500
O1058       O  0.87202054  0.71452946  0.12791387    -0.51600
O1059       O  0.83056007  0.74276275  0.11782829    -0.74800
O1060       O  0.83629908  0.70475172  0.15807580    -0.81600
O1061       O  0.89990609  0.77176014  0.15172705    -0.83400
O1062       O  0.81173783  0.70167791  0.19282757    -0.79000
O1063       O  0.88867362  0.74328032  0.13708637    -0.90600
O1064       O  0.80584743  0.76579778  0.12781953    -0.76600
O1065       O  0.81589734  0.74210426  0.17437984    -0.86100
O1066       O  0.84800218  0.76909722  0.15740868    -0.85800
O1067       O  0.85228844  0.72310438  0.20391642    -0.72500
O1068       O  0.88085520  0.74846512  0.18861536    -0.84700
Zr1069     Zr  0.83777225  0.77582110  0.24899695     2.26400
Zr1070     Zr  0.81517833  0.72996519  0.21955248     2.06300
Zr1071     Zr  0.87546325  0.78148508  0.18777810     2.10000
Zr1072     Zr  0.81132478  0.77509904  0.17426947     1.78800
O1073       O  0.91449884  0.78823764  0.19819946    -0.93500
O1074       O  0.77178341  0.76686412  0.17046033    -0.41300
O1075       O  0.83871166  0.78860996  0.20388148    -0.77900
O1076       O  0.80941064  0.76315072  0.21946252    -0.96600
O1077       O  0.84241576  0.74275345  0.24985838    -0.89900
O1078       O  0.87457710  0.76966784  0.23306251    -0.92700
C1079       C  0.81454189  0.75399393  0.11144572     1.01000
C1080       C  0.90225202  0.75719569  0.13702959     1.14000
C1081       C  0.82164476  0.69540848  0.17158662     1.04700
O1082       O  0.77598032  0.72468275  0.20808237    -0.94900
O1083       O  0.79333915  0.73817590  0.25877556    -0.90600
O1084       O  0.80727033  0.76474285  0.27737284    -0.83800
C1085       C  0.79326919  0.75117177  0.27657097     1.11400
O1086       O  0.90486266  0.71276632  0.21776896    -0.96900
Zr1087     Zr  0.87928263  0.73678748  0.23424131     1.88900
O1088       O  0.85864896  0.76928367  0.29059174    -0.73500
O1089       O  0.81759761  0.70408368  0.25158653    -0.52800
O1090       O  0.87516765  0.70840512  0.26109159    -0.97400
O1091       O  0.91847890  0.74607348  0.23785008    -0.54700
O1092       O  0.88249302  0.74526045  0.28218537    -0.74000
C1093       C  0.87366552  0.75745625  0.29811553     0.98300
O1094       O  0.81553081  0.80146419  0.26737001    -0.62800
O1095       O  0.87269736  0.80703395  0.15521846    -0.57600
O1096       O  0.85677074  0.80604139  0.25290975    -0.94300
O1097       O  0.87944991  0.80877066  0.21599359    -0.92800
O1098       O  0.81595291  0.80378695  0.14832252    -0.93100
O1099       O  0.78577389  0.79936160  0.18988561    -0.91900
C1100       C  0.87141897  0.81478950  0.23849240     1.17200
H1101       H  0.85006408  0.77404496  0.13930488     0.33100
H1102       H  0.79469428  0.76621246  0.22632007     0.44000
H1103       H  0.88561695  0.77580142  0.24424960     0.37500
H1104       H  0.85493457  0.70979181  0.20359896     0.34000
H1105       H  0.77162138  0.75486871  0.16052416     0.25800
H1106       H  0.80245279  0.69845893  0.25149771     0.31700
H1107       H  0.86926181  0.69897300  0.24832421     0.37600
H1108       H  0.80209592  0.80487400  0.13736246     0.32100
H1109       H  0.86071201  0.81518933  0.16248209     0.30900
H1110       H  0.91899241  0.79789278  0.18487006     0.32600
H1111       H  0.91861825  0.75688865  0.25031459     0.31600
H1112       H  0.79150879  0.80286173  0.20803570     0.35600
H1113       H  0.79978513  0.79864087  0.26254840     0.28300
H1114       H  0.86037485  0.70980597  0.11536999     0.32500
H1115       H  0.91406044  0.70913301  0.23366643     0.35400
H1116       H  0.88665180  0.81427780  0.15778113     0.28000
H1117       H  0.81628086  0.80001781  0.28735525     0.40900
H1118       H  0.76987221  0.71731015  0.22340641     0.30900
H1119       H  0.76704662  0.76353763  0.18911950     0.38600
H1120       H  0.92217500  0.75140072  0.21982969     0.30400
H1121       H  0.82726088  0.69469645  0.24261345     0.30500
H1122       H  0.87640656  0.70364037  0.13914753     0.30700
Zr1123     Zr  0.85070204  0.52116891  0.12788861     2.17500
O1124       O  0.87042178  0.54373091  0.15620432    -0.51600
O1125       O  0.82740110  0.51460098  0.16733414    -0.74800
O1126       O  0.83246510  0.55152456  0.12926350    -0.81600
O1127       O  0.90147909  0.48933014  0.13412312    -0.83400
O1128       O  0.80851913  0.55425464  0.09378795    -0.79000
O1129       O  0.88512753  0.51499295  0.15252787    -0.90600
O1130       O  0.80490312  0.48992780  0.15812423    -0.76600
O1131       O  0.81430839  0.51324239  0.11199860    -0.86100
O1132       O  0.84864282  0.48793673  0.12951114    -0.85800
O1133       O  0.84913157  0.53429101  0.08292342    -0.72500
O1134       O  0.88014938  0.51028892  0.09864580    -0.84700
Zr1135     Zr  0.83906507  0.48094379  0.03855319     2.26400
Zr1136     Zr  0.81264845  0.52572171  0.06701446     2.06300
Zr1137     Zr  0.87725888  0.47702195  0.09948577     2.10000
Zr1138     Zr  0.81258754  0.48001266  0.11240822     1.78800
O1139       O  0.91639615  0.46752336  0.09648100    -0.93500
O1140       O  0.77213233  0.48400137  0.11608060    -0.41300
O1141       O  0.84129270  0.46792658  0.08334050    -0.77900
O1142       O  0.80949736  0.49230691  0.06747087    -0.96600
O1143       O  0.84125928  0.51416993  0.03755704    -0.89900
O1144       O  0.87542932  0.48907488  0.05432413    -0.92700
C1145       C  0.81201264  0.50289112  0.17369845     1.01000
C1146       C  0.90095230  0.50290453  0.15095552     1.14000
C1147       C  0.81793777  0.56066098  0.11533037     1.04700
O1148       O  0.77285892  0.52796392  0.07756351    -0.94900
O1149       O  0.79369650  0.51710476  0.02538116    -0.90600
O1150       O  0.80804713  0.48974483  0.00942110    -0.83800
C1151       C  0.79431572  0.50352423  0.00842384     1.11400
O1152       O  0.90078702  0.54773273  0.06957602    -0.96900
Zr1153     Zr  0.87748301  0.52215361  0.05340925     1.88900
O1154       O  0.85805459  0.48987815  0.99707127    -0.73500
O1155       O  0.81195793  0.55195525  0.03548299    -0.52800
O1156       O  0.87230833  0.55125429  0.02848863    -0.97400
O1157       O  0.91699267  0.51380532  0.04938155    -0.54700
O1158       O  0.88021924  0.51483470  0.00554254    -0.74000
C1159       C  0.87181204  0.50260940  0.98953501     0.98300
O1160       O  0.81914169  0.45345209  0.02193105    -0.62800
O1161       O  0.87128193  0.45171347  0.13175706    -0.57600
O1162       O  0.86168593  0.45267098  0.03274750    -0.94300
O1163       O  0.88492828  0.45124237  0.06919049    -0.92800
O1164       O  0.81887398  0.45251602  0.14056341    -0.93100
O1165       O  0.79144023  0.45422458  0.09300840    -0.91900
C1166       C  0.87737825  0.44486220  0.04668483     1.17200
H1167       H  0.85089392  0.48332623  0.14776618     0.33100
H1168       H  0.79510685  0.48857899  0.06042370     0.44000
H1169       H  0.88697324  0.48374032  0.04296647     0.37500
H1170       H  0.85091440  0.54768240  0.08324957     0.34000
H1171       H  0.76766975  0.47594582  0.13152727     0.25800
H1172       H  0.79714833  0.55790138  0.03832577     0.31700
H1173       H  0.85947477  0.54889168  0.01623740     0.37600
H1174       H  0.80394238  0.44953684  0.14821030     0.32100
H1175       H  0.87508234  0.44023182  0.12158721     0.30900
H1176       H  0.91761850  0.45644374  0.10845636     0.32600
H1177       H  0.91812898  0.50640977  0.03247619     0.31600
H1178       H  0.80283704  0.44462844  0.08862423     0.35600
H1179       H  0.82043634  0.44413643  0.03674096     0.28300
H1180       H  0.85934464  0.54818100  0.16971572     0.32500
H1181       H  0.91166822  0.55020886  0.05481424     0.35400
H1182       H  0.88354124  0.45304836  0.14515417     0.28000
H1183       H  0.80302473  0.45673827  0.02197001     0.40900
H1184       H  0.76705063  0.51515870  0.07499195     0.30900
H1185       H  0.77005143  0.49688816  0.12285112     0.38600
H1186       H  0.91961828  0.50465498  0.06414426     0.30400
H1187       H  0.82289076  0.56099748  0.04284995     0.30500
H1188       H  0.87345891  0.55461995  0.14435183     0.30700
Zr1189     Zr  0.95064231  0.52259333  0.65604894     2.17500
O1190       O  0.93245524  0.54336912  0.62339822    -0.51600
O1191       O  0.97482444  0.51465817  0.61752084    -0.74800
O1192       O  0.96644050  0.55411906  0.65507725    -0.81600
O1193       O  0.90330441  0.48736269  0.64799567    -0.83400
O1194       O  0.98842859  0.55799586  0.69203756    -0.79000
O1195       O  0.91688246  0.51466012  0.63157929    -0.90600
O1196       O  0.99834452  0.49117640  0.62948032    -0.76600
O1197       O  0.98674277  0.51627144  0.67409173    -0.86100
O1198       O  0.95427983  0.48943165  0.65705636    -0.85800
O1199       O  0.94926179  0.53651979  0.70046780    -0.72500
O1200       O  0.92088367  0.51131799  0.68479139    -0.84700
Zr1201     Zr  0.96126801  0.48505013  0.74920876     2.26400
Zr1202     Zr  0.98557969  0.52959517  0.71853825     2.06300
Zr1203     Zr  0.92547889  0.47815688  0.68652920     2.10000
Zr1204     Zr  0.99008544  0.48310900  0.67602430     1.78800
O1205       O  0.88590947  0.47059661  0.69167508    -0.93500
O1206       O  0.03000942  0.49009511  0.67659072    -0.41300
O1207       O  0.96138032  0.47092350  0.70506523    -0.77900
O1208       O  0.99073055  0.49646242  0.72038412    -0.96600
O1209       O  0.95688060  0.51809123  0.74798834    -0.89900
O1210       O  0.92500380  0.49116318  0.73110424    -0.92700
C1211       C  0.99068553  0.50301064  0.61231095     1.01000
C1212       C  0.90265235  0.50128404  0.63169924     1.14000
C1213       C  0.97951276  0.56399272  0.67000712     1.04700
O1214       O  0.02526078  0.53284823  0.70809806    -0.94900
O1215       O  0.00541498  0.52274966  0.75976288    -0.90600
O1216       O  0.99117854  0.49631217  0.77855905    -0.83800
C1217       C  0.00497505  0.51008053  0.77810583     1.11400
O1218       O  0.89549856  0.54845018  0.71350580    -0.96900
Zr1219     Zr  0.92080500  0.52407642  0.72967861     1.88900
O1220       O  0.93836367  0.49252582  0.78837508    -0.73500
O1221       O  0.98486067  0.55591718  0.74975796    -0.52800
O1222       O  0.92548736  0.55381445  0.75290368    -0.97400
O1223       O  0.88137222  0.51514390  0.73019279    -0.54700
O1224       O  0.91520824  0.51645716  0.77732381    -0.74000
C1225       C  0.92311731  0.50451558  0.79426684     0.98300
O1226       O  0.98463213  0.46220878  0.77272550    -0.62800
O1227       O  0.93201013  0.45163084  0.65667195    -0.57600
O1228       O  0.94264962  0.45466914  0.75297606    -0.94300
O1229       O  0.91950296  0.45191669  0.71663593    -0.92800
O1230       O  0.98600267  0.45463221  0.64957922    -0.93100
O1231       O  0.01138212  0.45710034  0.69488204    -0.91900
C1232       C  0.92790055  0.44583305  0.73894645     1.17200
H1233       H  0.95277402  0.48414448  0.63909692     0.33100
H1234       H  0.00514696  0.49353277  0.72818543     0.44000
H1235       H  0.91339592  0.48551551  0.74203746     0.37500
H1236       H  0.94660998  0.54980566  0.69948327     0.34000
H1237       H  0.03648798  0.48213663  0.66215948     0.25800
H1238       H  0.99859559  0.56311360  0.74560792     0.31700
H1239       H  0.93447168  0.55085525  0.76925755     0.37600
H1240       H  0.00043435  0.45320971  0.63985013     0.32100
H1241       H  0.93615106  0.44120341  0.66891392     0.30900
H1242       H  0.88372561  0.45915173  0.68076900     0.32600
H1243       H  0.87857058  0.51021897  0.74867787     0.31600
H1244       H  0.01395082  0.46048256  0.71411626     0.35600
H1245       H  0.97499276  0.45656869  0.78689779     0.28300
H1246       H  0.94448110  0.54786869  0.61117460     0.32500
H1247       H  0.88580433  0.55160906  0.72918476     0.35400
H1248       H  0.91697205  0.44828818  0.64974787     0.28000
H1249       H  0.98723447  0.45213543  0.75934546     0.40900
H1250       H  0.02981231  0.54451884  0.71727759     0.30900
H1251       H  0.03111777  0.50294357  0.66929069     0.38600
H1252       H  0.88050672  0.50407344  0.71826180     0.30400
H1253       H  0.97238635  0.56391559  0.74335129     0.30500
H1254       H  0.92758651  0.55447573  0.63380385     0.30700
Zr1255     Zr  0.95849727  0.74216291  0.63205133     2.17500
O1256       O  0.94090457  0.72212681  0.66605260    -0.51600
O1257       O  0.98478533  0.74836289  0.66929194    -0.74800
O1258       O  0.97307133  0.71035981  0.63165109    -0.81600
O1259       O  0.91149942  0.77800958  0.64120628    -0.83400
O1260       O  0.99443791  0.70565121  0.59425697    -0.79000
O1261       O  0.92458747  0.75028924  0.65696265    -0.90600
O1262       O  0.00955756  0.77059458  0.65645028    -0.76600
O1263       O  0.99424317  0.74685399  0.61204528    -0.86100
O1264       O  0.96412938  0.77510207  0.63159529    -0.85800
O1265       O  0.95526429  0.72857092  0.58739472    -0.72500
O1266       O  0.92873182  0.75462527  0.60453981    -0.84700
Zr1267     Zr  0.96824859  0.77987552  0.53835764     2.26400
Zr1268     Zr  0.99125647  0.73407075  0.56736170     2.06300
Zr1269     Zr  0.93489069  0.78748970  0.60351613     2.10000
Zr1270     Zr  0.99967409  0.77973086  0.61062944     1.78800
O1271       O  0.89571905  0.79690983  0.60040303    -0.93500
O1272       O  0.03865954  0.76958571  0.60860775    -0.41300
O1273       O  0.97053492  0.79323139  0.58314662    -0.77900
O1274       O  0.99797923  0.76706063  0.56585357    -0.96600
O1275       O  0.96236761  0.74697915  0.53937918    -0.89900
O1276       O  0.93259107  0.77492046  0.55871607    -0.92700
C1277       C  0.00183948  0.75889725  0.67376470     1.01000
C1278       C  0.91042260  0.76381796  0.65703522     1.14000
C1279       C  0.98566695  0.70008628  0.61667594     1.04700
O1280       O  0.03119153  0.72848620  0.57362907    -0.94900
O1281       O  0.01031161  0.74149774  0.52548516    -0.90600
O1282       O  0.99762325  0.76881760  0.50770379    -0.83800
C1283       C  0.01075644  0.75455183  0.50762219     1.11400
O1284       O  0.89923974  0.72086631  0.57882336    -0.96900
Zr1285     Zr  0.92666586  0.74228066  0.55944172     1.88900
O1286       O  0.94585351  0.77149454  0.49860761    -0.73500
O1287       O  0.98626906  0.70723713  0.53770022    -0.52800
O1288       O  0.92863750  0.71196537  0.53723443    -0.97400
O1289       O  0.88816023  0.75377655  0.55792034    -0.54700
O1290       O  0.92128503  0.74900956  0.51131408    -0.74000
C1291       C  0.92990489  0.75994227  0.49343907     0.98300
O1292       O  0.98956468  0.80607983  0.51988081    -0.62800
O1293       O  0.94341537  0.81369080  0.63318830    -0.57600
O1294       O  0.94689198  0.80889950  0.53301215    -0.94300
O1295       O  0.92828803  0.81322768  0.57276008    -0.92800
O1296       O  0.99906265  0.80868188  0.63646851    -0.93100
O1297       O  0.02382482  0.80345772  0.59070163    -0.91900
C1298       C  0.93361124  0.81820122  0.54856628     1.17200
H1299       H  0.96356708  0.78029281  0.64967491     0.33100
H1300       H  0.01232061  0.76961854  0.55759525     0.44000
H1301       H  0.92085924  0.78091555  0.54836068     0.37500
H1302       H  0.95203733  0.71536346  0.58838281     0.34000
H1303       H  0.04642971  0.77711544  0.62255147     0.25800
H1304       H  0.97967325  0.71240539  0.52082922     0.31700
H1305       H  0.91663132  0.71224344  0.52335514     0.37600
H1306       H  0.01170114  0.80758622  0.64941171     0.32100
H1307       H  0.93503145  0.82435468  0.62535252     0.30900
H1308       H  0.89467257  0.80854181  0.61114688     0.32600
H1309       H  0.88757486  0.76263826  0.54248715     0.31600
H1310       H  0.01392208  0.81054151  0.57825242     0.35600
H1311       H  0.98888250  0.81582254  0.53410209     0.28300
H1312       H  0.95330279  0.71701268  0.67719100     0.32500
H1313       H  0.88969408  0.71687334  0.56345568     0.35400
H1314       H  0.93548143  0.81084826  0.65036253     0.28000
H1315       H  0.00544456  0.80206795  0.52011490     0.40900
H1316       H  0.03396358  0.71619128  0.56511418     0.30900
H1317       H  0.03863086  0.75676022  0.61613614     0.38600
H1318       H  0.88665649  0.76170484  0.57427017     0.30400
H1319       H  0.00166179  0.70348554  0.53248333     0.30500
H1320       H  0.93484396  0.71131356  0.65595852     0.30700
Zr1321     Zr  0.71604292  0.53019648  0.49487131     2.17500
O1322       O  0.73737528  0.55459487  0.51762499    -0.51600
O1323       O  0.69772888  0.52103037  0.53685385    -0.74800
O1324       O  0.69378643  0.55880184  0.50139798    -0.81600
O1325       O  0.76411248  0.49597557  0.49810459    -0.83400
O1326       O  0.66749668  0.55951728  0.46823604    -0.79000
O1327       O  0.75081316  0.52235263  0.51783692    -0.90600
O1328       O  0.67372661  0.49735608  0.52811240    -0.76600
O1329       O  0.67914373  0.52243247  0.48090469    -0.86100
O1330       O  0.71401656  0.49692790  0.49454739    -0.85800
O1331       O  0.71249657  0.54401160  0.45065270    -0.72500
O1332       O  0.74366590  0.51943683  0.46293345    -0.84700
Zr1333     Zr  0.69986210  0.49193160  0.40341595     2.26400
Zr1334     Zr  0.67578698  0.53524652  0.43628230     2.06300
Zr1335     Zr  0.74041888  0.48611361  0.46168532     2.10000
Zr1336     Zr  0.67721589  0.48932881  0.48053070     1.78800
O1337       O  0.77877367  0.48154863  0.44604557    -0.93500
O1338       O  0.63730008  0.49537614  0.48611695    -0.41300
O1339       O  0.70348518  0.47806841  0.44763540    -0.77900
O1340       O  0.67219588  0.50201962  0.43601307    -0.96600
O1341       O  0.70254820  0.52505418  0.40350213    -0.89900
O1342       O  0.73709126  0.49916654  0.41723315    -0.92700
C1343       C  0.68289511  0.50911883  0.54424519     1.01000
C1344       C  0.76537943  0.50925748  0.51535502     1.14000
C1345       C  0.67653459  0.56609186  0.48970398     1.04700
O1346       O  0.63561705  0.53961578  0.44222033    -0.94900
O1347       O  0.65328852  0.52753511  0.39761000    -0.90600
O1348       O  0.66417356  0.49916817  0.38210867    -0.83800
C1349       C  0.65071986  0.51314208  0.38262263     1.11400
O1350       O  0.76020000  0.56042580  0.43060452    -0.96900
Zr1351     Zr  0.73931766  0.53243298  0.41854414     1.88900
O1352       O  0.72159644  0.49948750  0.36280631    -0.73500
O1353       O  0.67941305  0.56376716  0.40960631    -0.52800
O1354       O  0.72959837  0.55925911  0.39033357    -0.97400
O1355       O  0.77984131  0.52794082  0.41767512    -0.54700
O1356       O  0.74608056  0.52266791  0.37259339    -0.74000
C1357       C  0.73756572  0.51066464  0.35644623     0.98300
O1358       O  0.68220528  0.47163417  0.36992871    -0.62800
O1359       O  0.74342071  0.45947455  0.49237356    -0.57600
O1360       O  0.71362088  0.45987997  0.40480025    -0.94300
O1361       O  0.73958191  0.45659887  0.43794268    -0.92800
O1362       O  0.68647696  0.46112368  0.50582749    -0.93100
O1363       O  0.65437809  0.46292635  0.46655413    -0.91900
C1364       C  0.72795200  0.45015573  0.41822570     1.17200
H1365       H  0.71734599  0.49178026  0.51224845     0.33100
H1366       H  0.65723924  0.49844058  0.43078315     0.44000
H1367       H  0.74818801  0.49367462  0.40541565     0.37500
H1368       H  0.71376549  0.55738903  0.45185549     0.34000
H1369       H  0.63291711  0.48798637  0.50227306     0.25800
H1370       H  0.66378789  0.56793921  0.40653236     0.31700
H1371       H  0.72104541  0.55409604  0.37485563     0.37600
H1372       H  0.69694134  0.45421678  0.49388787     0.32100
H1373       H  0.75950845  0.45606638  0.49219566     0.30900
H1374       H  0.78292848  0.46890010  0.45244193     0.32600
H1375       H  0.78407318  0.52838780  0.39824239     0.31600
H1376       H  0.65442144  0.46347855  0.44645614     0.35600
H1377       H  0.69455888  0.46650926  0.35874363     0.28300
H1378       H  0.72818621  0.55840158  0.53343837     0.32500
H1379       H  0.76889004  0.56380398  0.41417258     0.35400
H1380       H  0.74078991  0.46449295  0.51080717     0.28000
H1381       H  0.67617743  0.46084474  0.38017156     0.40900
H1382       H  0.62994051  0.52715056  0.44748620     0.30900
H1383       H  0.63641869  0.50850825  0.49223623     0.38600
H1384       H  0.78213433  0.51476084  0.42299962     0.30400
H1385       H  0.68570893  0.57313614  0.42221719     0.30500
H1386       H  0.73705298  0.56543497  0.50513190     0.30700
Zr1387     Zr  0.71843641  0.23491058  0.28615145     2.17500
O1388       O  0.74105921  0.21094053  0.26403844    -0.51600
O1389       O  0.69984059  0.24396498  0.24415172    -0.74800
O1390       O  0.69796702  0.20553687  0.27871833    -0.81600
O1391       O  0.76600566  0.27041830  0.28379244    -0.83400
O1392       O  0.67345609  0.20234556  0.31361900    -0.79000
O1393       O  0.75340093  0.24377964  0.26408721    -0.90600
O1394       O  0.67397118  0.26619739  0.25402479    -0.76600
O1395       O  0.68114707  0.24060511  0.30106422    -0.86100
O1396       O  0.71383747  0.26808557  0.28683261    -0.85800
O1397       O  0.71628528  0.22087594  0.33045365    -0.72500
O1398       O  0.74544319  0.24682627  0.31776264    -0.84700
Zr1399     Zr  0.70019231  0.27185930  0.37823961     2.26400
Zr1400     Zr  0.67903667  0.22741366  0.34558584     2.06300
Zr1401     Zr  0.74012699  0.27989676  0.31911254     2.10000
Zr1402     Zr  0.67652333  0.27352697  0.30180424     1.78800
O1403       O  0.77748248  0.28655600  0.33641389    -0.93500
O1404       O  0.63768270  0.26412324  0.29501593    -0.41300
O1405       O  0.70268856  0.28591280  0.33387760    -0.77900
O1406       O  0.67293255  0.26050223  0.34618034    -0.96600
O1407       O  0.70541062  0.23889484  0.37808038    -0.89900
O1408       O  0.73762215  0.26665514  0.36348403    -0.92700
C1409       C  0.68409666  0.25531007  0.23741669     1.01000
C1410       C  0.76777113  0.25702214  0.26664118     1.14000
C1411       C  0.68215797  0.19681648  0.29122215     1.04700
O1412       O  0.64030061  0.21785017  0.33881483    -0.94900
O1413       O  0.65378680  0.23519272  0.38205889    -0.90600
O1414       O  0.66622530  0.26185713  0.40150677    -0.83800
C1415       C  0.65201762  0.24854533  0.39918175     1.11400
O1416       O  0.76768637  0.20864877  0.34816639    -0.96900
Zr1417     Zr  0.74262246  0.23373525  0.36223637     1.88900
O1418       O  0.72161896  0.26464785  0.41942483    -0.73500
O1419       O  0.68642203  0.20069196  0.37490583    -0.52800
O1420       O  0.73676829  0.20505689  0.38793672    -0.97400
O1421       O  0.78208611  0.24254519  0.36355463    -0.54700
O1422       O  0.74849079  0.24344726  0.40871974    -0.74000
C1423       C  0.73876735  0.25452917  0.42540901     0.98300
O1424       O  0.68139513  0.29645164  0.40391623    -0.62800
O1425       O  0.74173120  0.30552292  0.28654138    -0.57600
O1426       O  0.71462832  0.30347399  0.38121917    -0.94300
O1427       O  0.73789328  0.30848720  0.34552770    -0.92800
O1428       O  0.68058036  0.30379402  0.27975257    -0.93100
O1429       O  0.64945110  0.29638708  0.31812779    -0.91900
C1430       C  0.72778559  0.31387538  0.36720463     1.17200
H1431       H  0.71667054  0.27354632  0.26921510     0.33100
H1432       H  0.65788322  0.26353171  0.35173357     0.44000
H1433       H  0.74824584  0.27262946  0.37543058     0.37500
H1434       H  0.71859642  0.20756996  0.32916894     0.34000
H1435       H  0.63227647  0.27194688  0.27975603     0.25800
H1436       H  0.67677029  0.20267757  0.39100530     0.31700
H1437       H  0.74476527  0.20691562  0.40532755     0.37600
H1438       H  0.69304176  0.30218385  0.26668047     0.32100
H1439       H  0.72997862  0.31439123  0.29249325     0.30900
H1440       H  0.78370111  0.29591131  0.32367402     0.32600
H1441       H  0.78301952  0.25282657  0.37689979     0.31600
H1442       H  0.65624922  0.30144216  0.33490909     0.35600
H1443       H  0.66571284  0.29685794  0.39735689     0.28300
H1444       H  0.73269460  0.20736826  0.24748342     0.32500
H1445       H  0.77726435  0.20598698  0.36414141     0.35400
H1446       H  0.75603003  0.31195542  0.29051835     0.28000
H1447       H  0.68054541  0.29195827  0.42292500     0.40900
H1448       H  0.63247256  0.22933156  0.33279461     0.30900
H1449       H  0.63856977  0.25137864  0.28736326     0.38600
H1450       H  0.78494417  0.24861430  0.34580876     0.30400
H1451       H  0.67956807  0.18995898  0.36541822     0.30500
H1452       H  0.74037167  0.19987217  0.27608927     0.30700
Zr1453     Zr  0.59048414  0.52950219  0.78474932     2.17500
O1454       O  0.56667330  0.55362878  0.76485777    -0.51600
O1455       O  0.61055402  0.52142567  0.74358062    -0.74800
O1456       O  0.61118716  0.55846665  0.77674791    -0.81600
O1457       O  0.54395241  0.49359884  0.77916158    -0.83400
O1458       O  0.63574540  0.56112064  0.81167937    -0.79000
O1459       O  0.55835780  0.51943193  0.75890263    -0.90600
O1460       O  0.63574450  0.49885641  0.75444482    -0.76600
O1461       O  0.62732683  0.52321491  0.80063221    -0.86100
O1462       O  0.59395535  0.49629344  0.78596189    -0.85800
O1463       O  0.59211076  0.54397625  0.82852989    -0.72500
O1464       O  0.56233950  0.51816172  0.81539753    -0.84700
Zr1465     Zr  0.60538589  0.49300592  0.87803888     2.26400
Zr1466     Zr  0.62878265  0.53676390  0.84484083     2.06300
Zr1467     Zr  0.56683135  0.48498425  0.81771246     2.10000
Zr1468     Zr  0.63066224  0.49019920  0.80182426     1.78800
O1469       O  0.52820240  0.48044587  0.83221264    -0.93500
O1470       O  0.67063269  0.49634801  0.79663560    -0.41300
O1471       O  0.60372736  0.47867111  0.83387150    -0.77900
O1472       O  0.63363253  0.50346269  0.84610439    -0.96600
O1473       O  0.60132936  0.52609096  0.87679947    -0.89900
O1474       O  0.56844078  0.49874811  0.86178402    -0.92700
C1475       C  0.62649949  0.51014150  0.73752694     1.01000
C1476       C  0.54378506  0.50635515  0.76083719     1.14000
C1477       C  0.62722359  0.56680997  0.78921026     1.04700
O1478       O  0.66726624  0.54752250  0.84036887    -0.94900
O1479       O  0.65428542  0.52789381  0.88060651    -0.90600
O1480       O  0.64081470  0.50133554  0.89983874    -0.83800
C1481       C  0.65574942  0.51409225  0.89707664     1.11400
O1482       O  0.54322372  0.55908660  0.84475585    -0.96900
Zr1483     Zr  0.56466257  0.53187018  0.85944473     1.88900
O1484       O  0.58175842  0.50105547  0.91745367    -0.73500
O1485       O  0.62059248  0.56372821  0.87319976    -0.52800
O1486       O  0.57246539  0.55859771  0.88842068    -0.97400
O1487       O  0.52438989  0.52620402  0.85806920    -0.54700
O1488       O  0.55539822  0.52216893  0.90478070    -0.74000
C1489       C  0.56431550  0.51118614  0.92218658     0.98300
O1490       O  0.61801377  0.47055777  0.91220152    -0.62800
O1491       O  0.56604199  0.45842065  0.78689363    -0.57600
O1492       O  0.59402827  0.46028786  0.87699666    -0.94300
O1493       O  0.56801974  0.45612807  0.84404962    -0.92800
O1494       O  0.62347805  0.46103050  0.77811396    -0.93100
O1495       O  0.65429322  0.46493050  0.81849277    -0.91900
C1496       C  0.57994073  0.45010884  0.86397190     1.17200
H1497       H  0.59153473  0.49086075  0.76828171     0.33100
H1498       H  0.64856852  0.49985648  0.85155221     0.44000
H1499       H  0.55726851  0.49305226  0.87332325     0.37500
H1500       H  0.59022385  0.55729443  0.82683768     0.34000
H1501       H  0.67163863  0.50643006  0.78291341     0.25800
H1502       H  0.62891396  0.56139328  0.89025932     0.31700
H1503       H  0.55926189  0.55971409  0.90049965     0.37600
H1504       H  0.63315095  0.46149249  0.76178425     0.32100
H1505       H  0.57916786  0.45071051  0.79204035     0.30900
H1506       H  0.52291981  0.46959918  0.82158501     0.32600
H1507       H  0.52238741  0.51378002  0.86654226     0.31600
H1508       H  0.64941321  0.46302823  0.83752685     0.35600
H1509       H  0.63351674  0.46701266  0.90714526     0.28300
H1510       H  0.57469296  0.55806231  0.74846698     0.32500
H1511       H  0.53330196  0.56227180  0.86020795     0.35400
H1512       H  0.55287997  0.45098566  0.79260840     0.28000
H1513       H  0.61945744  0.47763788  0.92936211     0.40900
H1514       H  0.67433922  0.53847496  0.82782099     0.30900
H1515       H  0.67517954  0.50239489  0.81381750     0.38600
H1516       H  0.52093672  0.52418613  0.83862749     0.30400
H1517       H  0.62868414  0.57418575  0.86443675     0.30500
H1518       H  0.56723647  0.56420101  0.77775697     0.30700
Zr1519     Zr  0.59076074  0.23400248  0.99785642     2.17500
O1520       O  0.56905047  0.21203056  0.02513182    -0.51600
O1521       O  0.61119886  0.24281916  0.03866674    -0.74800
O1522       O  0.60911998  0.20357678  0.00316744    -0.81600
O1523       O  0.54144194  0.26777535  0.99954769    -0.83400
O1524       O  0.63580811  0.20131179  0.97048348    -0.79000
O1525       O  0.55568106  0.24177724  0.01969132    -0.90600
O1526       O  0.63658774  0.26502732  0.02781390    -0.76600
O1527       O  0.62780819  0.24081671  0.98334478    -0.86100
O1528       O  0.59347323  0.26725786  0.99657276    -0.85800
O1529       O  0.59347124  0.21937083  0.95412962    -0.72500
O1530       O  0.56306535  0.24482967  0.96607997    -0.84700
Zr1531     Zr  0.60683422  0.27083614  0.90536085     2.26400
Zr1532     Zr  0.63042971  0.22716330  0.93922839     2.06300
Zr1533     Zr  0.56654001  0.27808811  0.96406172     2.10000
Zr1534     Zr  0.63035156  0.27393288  0.98135542     1.78800
O1535       O  0.52864972  0.28335621  0.94730438    -0.93500
O1536       O  0.67054685  0.26796208  0.98329702    -0.41300
O1537       O  0.60359197  0.28519193  0.94913941    -0.77900
O1538       O  0.63467239  0.26050876  0.93754688    -0.96600
O1539       O  0.60356533  0.23768576  0.90642582    -0.89900
O1540       O  0.56962974  0.26435923  0.92003708    -0.92700
C1541       C  0.62730286  0.25391217  0.04474416     1.01000
C1542       C  0.54059815  0.25439310  0.01688880     1.14000
C1543       C  0.62545815  0.19507563  0.99145298     1.04700
O1544       O  0.66983144  0.21993571  0.94680329    -0.94900
O1545       O  0.65501453  0.23567017  0.90284775    -0.90600
O1546       O  0.64201080  0.26222057  0.88330078    -0.83800
C1547       C  0.65657512  0.24913537  0.88588684     1.11400
O1548       O  0.54085788  0.20725465  0.93821629    -0.96900
Zr1549     Zr  0.56669132  0.23117564  0.92213148     1.88900
O1550       O  0.58454806  0.26308408  0.86539599    -0.73500
O1551       O  0.62684125  0.20071813  0.90852805    -0.52800
O1552       O  0.57509616  0.20156546  0.90005555    -0.97400
O1553       O  0.52706607  0.23807012  0.91492556    -0.54700
O1554       O  0.56288343  0.23788062  0.87454196    -0.74000
C1555       C  0.57024216  0.25056322  0.85861047     0.98300
O1556       O  0.62167788  0.29410310  0.87390579    -0.62800
O1557       O  0.56382013  0.30329885  0.99702257    -0.57600
O1558       O  0.59392595  0.30316063  0.90547778    -0.94300
O1559       O  0.56806715  0.30739805  0.93863922    -0.92800
O1560       O  0.62233994  0.30246886  0.00642918    -0.93100
O1561       O  0.65304793  0.30039739  0.96710648    -0.91900
C1562       C  0.57977962  0.31334365  0.91845525     1.17200
H1563       H  0.59057979  0.27261929  0.01421030     0.33100
H1564       H  0.64957535  0.26408902  0.93219952     0.44000
H1565       H  0.55870618  0.26979640  0.90791147     0.37500
H1566       H  0.59164691  0.20603483  0.95550981     0.34000
H1567       H  0.67602512  0.27568406  0.99855240     0.25800
H1568       H  0.64235285  0.19805805  0.90247500     0.31700
H1569       H  0.58423274  0.20489964  0.88397267     0.37600
H1570       H  0.62051120  0.29859560  0.02561297     0.32100
H1571       H  0.57700144  0.31128322  0.99334201     0.30900
H1572       H  0.52307966  0.29417629  0.95782125     0.32600
H1573       H  0.52668564  0.24893798  0.90249041     0.31600
H1574       H  0.64891596  0.30243849  0.94785391     0.35600
H1575       H  0.63727308  0.29669625  0.87962850     0.28300
H1576       H  0.57924328  0.20752628  0.03960864     0.32500
H1577       H  0.53429629  0.20168391  0.92163754     0.35400
H1578       H  0.55081959  0.31085526  0.99100263     0.28000
H1579       H  0.62288687  0.28789499  0.85601349     0.40900
H1580       H  0.67304994  0.22464035  0.96527216     0.30900
H1581       H  0.67184623  0.25497758  0.99001420     0.38600
H1582       H  0.52177773  0.24306467  0.93253446     0.30400
H1583       H  0.62289099  0.19001601  0.92031880     0.30500
H1584       H  0.56644907  0.20109783  0.01328349     0.30700
Zr1585     Zr  0.08866867  0.02769935  0.78528106     2.17500
O1586       O  0.06577321  0.05138845  0.76286651    -0.51600
O1587       O  0.10839775  0.01848945  0.74426668    -0.74800
O1588       O  0.10932032  0.05707825  0.77778217    -0.81600
O1589       O  0.04226252  0.99148831  0.78128180    -0.83400
O1590       O  0.13304619  0.06046984  0.81345087    -0.79000
O1591       O  0.05573600  0.01761737  0.76071938    -0.90600
O1592       O  0.13455114  0.99696526  0.75624291    -0.76600
O1593       O  0.12540526  0.02223469  0.80205436    -0.86100
O1594       O  0.09332807  0.99454114  0.78721582    -0.85800
O1595       O  0.08884187  0.04247079  0.82897414    -0.72500
O1596       O  0.06051922  0.01568772  0.81559231    -0.84700
Zr1597     Zr  0.10330860  0.99217769  0.87915463     2.26400
Zr1598     Zr  0.12545850  0.03614092  0.84605525     2.06300
Zr1599     Zr  0.06626286  0.98265885  0.81855618     2.10000
Zr1600     Zr  0.12996436  0.98928612  0.80398661     1.78800
O1601       O  0.02833880  0.97560491  0.83370283    -0.93500
O1602       O  0.16960936  0.99663308  0.79899618    -0.41300
O1603       O  0.10313975  0.97704134  0.83559307    -0.77900
O1604       O  0.13166592  0.00313737  0.84809421    -0.96600
O1605       O  0.09782987  0.02507985  0.87730290    -0.89900
O1606       O  0.06641397  0.99690396  0.86226210    -0.92700
C1607       C  0.12472622  0.00743703  0.73873165     1.01000
C1608       C  0.04139273  0.00440109  0.76320677     1.14000
C1609       C  0.12496340  0.06577096  0.79061190     1.04700
O1610       O  0.16485114  0.04449019  0.84220109    -0.94900
O1611       O  0.14786521  0.02968858  0.88536417    -0.90600
O1612       O  0.13620704  0.00244619  0.90391201    -0.83800
C1613       C  0.14959528  0.01639939  0.90261455     1.11400
O1614       O  0.03826618  0.05468615  0.83985215    -0.96900
Zr1615     Zr  0.06119652  0.02984296  0.85936752     1.88900
O1616       O  0.07912781  0.99937883  0.91781263    -0.73500
O1617       O  0.11710318  0.06392169  0.87263598    -0.52800
O1618       O  0.06502631  0.05821266  0.88615278    -0.97400
O1619       O  0.02145109  0.02193896  0.86049648    -0.54700
O1620       O  0.05320091  0.02102500  0.90564515    -0.74000
C1621       C  0.06200147  0.00973367  0.92276978     0.98300
O1622       O  0.12334680  0.97258222  0.91175043    -0.62800
O1623       O  0.06650274  0.95725944  0.78575531    -0.57600
O1624       O  0.09016294  0.96005982  0.88147750    -0.94300
O1625       O  0.06823659  0.95394824  0.84511846    -0.92800
O1626       O  0.12375319  0.95937662  0.78177271    -0.93100
O1627       O  0.15557632  0.96531422  0.82053723    -0.91900
C1628       C  0.07794949  0.94904285  0.86730510     1.17200
H1629       H  0.09120228  0.98887854  0.76960894     0.33100
H1630       H  0.14649218  0.00042839  0.85476867     0.44000
H1631       H  0.05535660  0.99100620  0.87372622     0.37500
H1632       H  0.08658393  0.05573854  0.82705382     0.34000
H1633       H  0.17470005  0.98907489  0.78333618     0.25800
H1634       H  0.12151890  0.06065662  0.89143990     0.31700
H1635       H  0.05173918  0.05838035  0.89822113     0.37600
H1636       H  0.12194440  0.96230274  0.76223335     0.32100
H1637       H  0.07942022  0.94936210  0.79103721     0.30900
H1638       H  0.02517385  0.96303335  0.82635988     0.32600
H1639       H  0.02049423  0.01030241  0.87130579     0.31600
H1640       H  0.15564998  0.96686607  0.84051450     0.35600
H1641       H  0.11191166  0.96782336  0.92458950     0.28300
H1642       H  0.07423529  0.05507321  0.74640875     0.32500
H1643       H  0.02771852  0.05844790  0.85438637     0.35400
H1644       H  0.05317520  0.94967399  0.79034853     0.28000
H1645       H  0.12871080  0.96151455  0.90161804     0.40900
H1646       H  0.17179035  0.03384977  0.83252244     0.30900
H1647       H  0.16986796  0.00964584  0.79222217     0.38600
H1648       H  0.01789699  0.01801198  0.84172742     0.30400
H1649       H  0.12838803  0.07319652  0.86674377     0.30500
H1650       H  0.06626838  0.06243850  0.77489497     0.30700
Zr1651     Zr  0.09070657  0.73356940  0.00241659     2.17500
O1652       O  0.06727540  0.70943191  0.02276752    -0.51600
O1653       O  0.11075282  0.74129524  0.04370840    -0.74800
O1654       O  0.11132361  0.70439128  0.00972909    -0.81600
O1655       O  0.04284964  0.76804097  0.00558796    -0.83400
O1656       O  0.13565934  0.70127689  0.97458354    -0.79000
O1657       O  0.05791194  0.74321975  0.02806355    -0.90600
O1658       O  0.13605095  0.76389503  0.03397074    -0.76600
O1659       O  0.12782423  0.73999444  0.98771861    -0.86100
O1660       O  0.09412990  0.76675932  0.00161740    -0.85800
O1661       O  0.09341583  0.71950239  0.95830072    -0.72500
O1662       O  0.06314811  0.74488385  0.97087171    -0.84700
Zr1663     Zr  0.10733710  0.77064406  0.91017683     2.26400
Zr1664     Zr  0.13048794  0.72688534  0.94331089     2.06300
Zr1665     Zr  0.06745009  0.77805074  0.96929426     2.10000
Zr1666     Zr  0.13119495  0.77298766  0.98690736     1.78800
O1667       O  0.03016072  0.78378705  0.95096663    -0.93500
O1668       O  0.17115112  0.76661104  0.99213359    -0.41300
O1669       O  0.10467336  0.78466808  0.95449637    -0.77900
O1670       O  0.13508904  0.76010818  0.94245899    -0.96600
O1671       O  0.10353722  0.73762104  0.91081966    -0.89900
O1672       O  0.07004524  0.76471436  0.92489199    -0.92700
C1673       C  0.12666290  0.75238671  0.05038063     1.01000
C1674       C  0.04260928  0.75559937  0.02439740     1.14000
C1675       C  0.12702544  0.69572550  0.99699992     1.04700
O1676       O  0.16951855  0.71960913  0.95310304    -0.94900
O1677       O  0.15606214  0.73550197  0.90766639    -0.90600
O1678       O  0.14238941  0.76190692  0.88819528    -0.83800
C1679       C  0.15729228  0.74913086  0.89090759     1.11400
O1680       O  0.04213589  0.70653511  0.94226120    -0.96900
Zr1681     Zr  0.06650930  0.73160643  0.92656314     1.88900
O1682       O  0.08570113  0.76270922  0.86935340    -0.73500
O1683       O  0.12633389  0.70028297  0.91296287    -0.52800
O1684       O  0.07384616  0.70281627  0.90182256    -0.97400
O1685       O  0.02667851  0.73901520  0.92336003    -0.54700
O1686       O  0.06118929  0.73958277  0.87929231    -0.74000
C1687       C  0.06991942  0.75135228  0.86280429     0.98300
O1688       O  0.12234419  0.79358078  0.87830367    -0.62800
O1689       O  0.06342171  0.80310117  0.00233617    -0.57600
O1690       O  0.09512164  0.80308370  0.91074031    -0.94300
O1691       O  0.07068193  0.80768419  0.94529611    -0.92800
O1692       O  0.12379517  0.80085476  0.01368105    -0.93100
O1693       O  0.15458134  0.79864729  0.97111602    -0.91900
C1694       C  0.08192360  0.81351210  0.92468919     1.17200
H1695       H  0.09129504  0.77207296  0.01931879     0.33100
H1696       H  0.15001697  0.76364255  0.93703577     0.44000
H1697       H  0.05923850  0.77037052  0.91282995     0.37500
H1698       H  0.09157057  0.70616625  0.95966755     0.34000
H1699       H  0.17196053  0.75529207  0.00365910     0.25800
H1700       H  0.13791060  0.70205605  0.89878596     0.31700
H1701       H  0.08440899  0.70637678  0.88719310     0.37600
H1702       H  0.11835966  0.81020932  0.00040571     0.32100
H1703       H  0.07676776  0.81107831  0.99967251     0.30900
H1704       H  0.02184270  0.78986936  0.96593898     0.32600
H1705       H  0.02568530  0.74960142  0.91047078     0.31600
H1706       H  0.15529327  0.79711197  0.95114966     0.35600
H1707       H  0.13776957  0.79646312  0.88443190     0.28300
H1708       H  0.07529490  0.70534534  0.03936036     0.32500
H1709       H  0.03426984  0.70200599  0.92584683     0.35400
H1710       H  0.05073397  0.81073318  0.99558845     0.28000
H1711       H  0.12408022  0.78714334  0.86064832     0.40900
H1712       H  0.17241041  0.72543870  0.97097714     0.30900
H1713       H  0.17630215  0.76236925  0.97405725     0.38600
H1714       H  0.02283420  0.74451603  0.94120002     0.30400
H1715       H  0.13163995  0.68938451  0.92355768     0.30500
H1716       H  0.06814842  0.69866807  0.01022859     0.30700
Zr1717     Zr  0.21347853  0.02381293  0.49605189     2.17500
O1718       O  0.23548805  0.04841967  0.51733698    -0.51600
O1719       O  0.19342781  0.01538665  0.53724181    -0.74800
O1720       O  0.19196264  0.05258787  0.50211261    -0.81600
O1721       O  0.26144429  0.98932437  0.50263619    -0.83400
O1722       O  0.16779145  0.05492309  0.46672324    -0.79000
O1723       O  0.24703864  0.01564641  0.52160083    -0.90600
O1724       O  0.17007069  0.99143935  0.52747353    -0.76600
O1725       O  0.17678347  0.01636190  0.48054786    -0.86100
O1726       O  0.21109757  0.99058198  0.49575423    -0.85800
O1727       O  0.21077194  0.03767994  0.45166989    -0.72500
O1728       O  0.24207879  0.01308239  0.46553264    -0.84700
Zr1729     Zr  0.20003437  0.98582784  0.40413461     2.26400
Zr1730     Zr  0.17427785  0.02923519  0.43587134     2.06300
Zr1731     Zr  0.23880692  0.97983325  0.46453635     2.10000
Zr1732     Zr  0.17465367  0.98325487  0.47997007     1.78800
O1733       O  0.27736735  0.97567669  0.44946058    -0.93500
O1734       O  0.13475338  0.98944563  0.48563921    -0.41300
O1735       O  0.20224517  0.97190172  0.44862763    -0.77900
O1736       O  0.17118689  0.99595876  0.43522404    -0.96600
O1737       O  0.20236664  0.01899330  0.40452584    -0.89900
O1738       O  0.23671041  0.99299843  0.42002586    -0.92700
C1739       C  0.17842434  0.00339765  0.54395013     1.01000
C1740       C  0.26167194  0.00248882  0.52021326     1.14000
C1741       C  0.17626514  0.06097485  0.48898168     1.04700
O1742       O  0.13405565  0.03147869  0.44365697    -0.94900
O1743       O  0.15310330  0.02175071  0.39554790    -0.90600
O1744       O  0.16575274  0.99377313  0.38003716    -0.83800
C1745       C  0.15201693  0.00758021  0.37979672     1.11400
O1746       O  0.25871932  0.05383225  0.43672700    -0.96900
Zr1747     Zr  0.23875238  0.02622420  0.42106060     1.88900
O1748       O  0.22343158  0.99306945  0.36440157    -0.73500
O1749       O  0.17509415  0.05787412  0.40918784    -0.52800
O1750       O  0.22985221  0.05255508  0.39150497    -0.97400
O1751       O  0.27941553  0.02279385  0.41997883    -0.54700
O1752       O  0.24739841  0.01629163  0.37564404    -0.74000
C1753       C  0.23967579  0.00426760  0.35893654     0.98300
O1754       O  0.18061100  0.96507336  0.37274816    -0.62800
O1755       O  0.24140928  0.95459816  0.49764657    -0.57600
O1756       O  0.21483932  0.95406305  0.40427446    -0.94300
O1757       O  0.23857224  0.95055874  0.43984287    -0.92800
O1758       O  0.18171707  0.95438166  0.50472539    -0.93100
O1759       O  0.15146677  0.95799772  0.46263790    -0.91900
C1760       C  0.22843825  0.94432612  0.41874153     1.17200
H1761       H  0.21379209  0.98538284  0.51357428     0.33100
H1762       H  0.15655535  0.99230401  0.42894289     0.44000
H1763       H  0.24817974  0.98752193  0.40869197     0.37500
H1764       H  0.21207659  0.05106828  0.45284567     0.34000
H1765       H  0.12983274  0.98057850  0.49988620     0.25800
H1766       H  0.18142933  0.05413483  0.39143206     0.31700
H1767       H  0.22180617  0.04712108  0.37581845     0.37600
H1768       H  0.16717239  0.95118884  0.51323655     0.32100
H1769       H  0.22834818  0.94651661  0.49384675     0.30900
H1770       H  0.28467079  0.96851153  0.46423289     0.32600
H1771       H  0.28215013  0.01078418  0.41063911     0.31600
H1772       H  0.15770462  0.95527123  0.44442853     0.35600
H1773       H  0.19224516  0.96026071  0.36022705     0.28300
H1774       H  0.22711777  0.05195371  0.53392301     0.32500
H1775       H  0.26622330  0.05900444  0.42042983     0.35400
H1776       H  0.25457184  0.94714384  0.49192012     0.28000
H1777       H  0.17576996  0.95415672  0.38362081     0.40900
H1778       H  0.12882285  0.01838788  0.44447060     0.30900
H1779       H  0.13400169  0.00182115  0.49450153     0.38600
H1780       H  0.28373117  0.02038313  0.43908273     0.30400
H1781       H  0.15913957  0.06062457  0.40529213     0.30500
H1782       H  0.23428666  0.05935538  0.50508962     0.30700
Zr1783     Zr  0.22011638  0.72927817  0.29091250     2.17500
O1784       O  0.24318988  0.70494995  0.27043907    -0.51600
O1785       O  0.20023067  0.73795220  0.24961293    -0.74800
O1786       O  0.19848700  0.70030215  0.28374310    -0.81600
O1787       O  0.26861470  0.76368395  0.28690266    -0.83400
O1788       O  0.17341508  0.69848210  0.31830750    -0.79000
O1789       O  0.25298638  0.73889087  0.26524976    -0.90600
O1790       O  0.17702637  0.76219128  0.25911829    -0.76600
O1791       O  0.18327953  0.73749951  0.30483776    -0.86100
O1792       O  0.21867148  0.76264659  0.29211322    -0.85800
O1793       O  0.21611919  0.71523948  0.33500234    -0.72500
O1794       O  0.24807019  0.73935036  0.32295050    -0.84700
Zr1795     Zr  0.20425911  0.76653492  0.38318500     2.26400
Zr1796     Zr  0.17928653  0.72415562  0.34896560     2.06300
Zr1797     Zr  0.24554721  0.77270701  0.32498547     2.10000
Zr1798     Zr  0.18194159  0.77064593  0.30627998     1.78800
O1799       O  0.28414826  0.77567773  0.34051779    -0.93500
O1800       O  0.14175564  0.76641027  0.30024627    -0.41300
O1801       O  0.20859287  0.78095717  0.33931890    -0.77900
O1802       O  0.17642473  0.75744390  0.35033272    -0.96600
O1803       O  0.20640195  0.73338245  0.38201818    -0.89900
O1804       O  0.24149654  0.75922628  0.36918132    -0.92700
C1805       C  0.18536585  0.75008864  0.24283208     1.01000
C1806       C  0.26805260  0.75157011  0.26779151     1.14000
C1807       C  0.18211557  0.69229217  0.29631891     1.04700
O1808       O  0.13984302  0.72203858  0.33669066    -0.94900
O1809       O  0.15588143  0.73213585  0.38684571    -0.90600
O1810       O  0.16855509  0.75925876  0.40488198    -0.83800
C1811       C  0.15411013  0.74605848  0.40293176     1.11400
O1812       O  0.26467990  0.69918547  0.35107242    -0.96900
Zr1813     Zr  0.24334322  0.72603364  0.36716892     1.88900
O1814       O  0.22587431  0.75862581  0.42380730    -0.73500
O1815       O  0.17794045  0.69627448  0.37726488    -0.52800
O1816       O  0.23667054  0.69775401  0.39349878    -0.97400
O1817       O  0.28344907  0.73209239  0.37082493    -0.54700
O1818       O  0.24832918  0.73394894  0.41443668    -0.74000
C1819       C  0.24077797  0.74649249  0.43052963     0.98300
O1820       O  0.18576819  0.78732449  0.41546258    -0.62800
O1821       O  0.24891991  0.79997159  0.29555368    -0.57600
O1822       O  0.21907593  0.79811459  0.38331563    -0.94300
O1823       O  0.24532443  0.80170124  0.35056432    -0.92800
O1824       O  0.19093932  0.79893445  0.28109724    -0.93100
O1825       O  0.16001288  0.79724074  0.32189317    -0.91900
C1826       C  0.23373110  0.80787285  0.37059402     1.17200
H1827       H  0.22190525  0.76794008  0.27448625     0.33100
H1828       H  0.16159530  0.76134751  0.35567781     0.44000
H1829       H  0.25248538  0.76442922  0.38138564     0.37500
H1830       H  0.21725636  0.70182377  0.33365848     0.34000
H1831       H  0.13788989  0.77421421  0.28428778     0.25800
H1832       H  0.16353533  0.69025561  0.37253968     0.31700
H1833       H  0.22293756  0.70038530  0.40412122     0.37600
H1834       H  0.20357354  0.80455526  0.29117861     0.32100
H1835       H  0.26470398  0.80399898  0.29748401     0.30900
H1836       H  0.28691033  0.78928540  0.34141097     0.32600
H1837       H  0.28473516  0.74355370  0.38189491     0.31600
H1838       H  0.16859841  0.80226778  0.33744130     0.35600
H1839       H  0.19775458  0.79234046  0.42727485     0.28300
H1840       H  0.23541393  0.70151733  0.25340999     0.32500
H1841       H  0.27516133  0.69598197  0.36596896     0.35400
H1842       H  0.24784632  0.79520701  0.27674765     0.28000
H1843       H  0.18030129  0.79812755  0.40475200     0.40900
H1844       H  0.13414536  0.73499779  0.33780404     0.30900
H1845       H  0.14016320  0.75343037  0.29369931     0.38600
H1846       H  0.28807561  0.73598771  0.35235773     0.30400
H1847       H  0.18953999  0.68788621  0.36964671     0.30500
H1848       H  0.24156627  0.69393120  0.28244415     0.30700
Zr1849     Zr  0.85334374  0.24059228  0.65472935     2.17500
O1850       O  0.87260820  0.21882415  0.62461434    -0.51600
O1851       O  0.82963283  0.24830653  0.61535683    -0.74800
O1852       O  0.83614951  0.20982954  0.65222180    -0.81600
O1853       O  0.90412396  0.27225382  0.65373777    -0.83400
O1854       O  0.81295030  0.20540458  0.68806104    -0.79000
O1855       O  0.88898386  0.24720104  0.63268088    -0.90600
O1856       O  0.80305093  0.26903137  0.62860539    -0.76600
O1857       O  0.81675083  0.24679698  0.67133268    -0.86100
O1858       O  0.84976842  0.27375047  0.65510823    -0.85800
O1859       O  0.85300294  0.22651892  0.69925567    -0.72500
O1860       O  0.88177085  0.25152342  0.68550525    -0.84700
Zr1861     Zr  0.83997563  0.27787676  0.74731172     2.26400
Zr1862     Zr  0.81620820  0.23329841  0.71574703     2.06300
Zr1863     Zr  0.87768186  0.28465640  0.68615775     2.10000
Zr1864     Zr  0.81340351  0.27991231  0.67303799     1.78800
O1865       O  0.91600129  0.29623388  0.68842982    -0.93500
O1866       O  0.77312982  0.27506103  0.67707972    -0.41300
O1867       O  0.84135941  0.29199288  0.70315702    -0.77900
O1868       O  0.81127418  0.26651685  0.71740852    -0.96600
O1869       O  0.84373900  0.24478561  0.74660767    -0.89900
O1870       O  0.87665493  0.27159682  0.73078940    -0.92700
C1871       C  0.81190511  0.25818058  0.61100747     1.01000
C1872       C  0.90493780  0.25890757  0.63646137     1.14000
C1873       C  0.82231745  0.19991086  0.66598466     1.04700
O1874       O  0.77641116  0.22956252  0.70635319    -0.94900
O1875       O  0.79630391  0.24067583  0.75687802    -0.90600
O1876       O  0.81073290  0.26651043  0.77696170    -0.83800
C1877       C  0.79669652  0.25301594  0.77567672     1.11400
O1878       O  0.90504919  0.21387067  0.71446362    -0.96900
Zr1879     Zr  0.88033238  0.23866345  0.73042815     1.88900
O1880       O  0.86042096  0.27028343  0.78849087    -0.73500
O1881       O  0.81850844  0.20551787  0.74421932    -0.52800
O1882       O  0.87437250  0.20992681  0.75596793    -0.97400
O1883       O  0.91980327  0.24714481  0.73369771    -0.54700
O1884       O  0.88431259  0.24663312  0.77846297    -0.74000
C1885       C  0.87565197  0.25843011  0.79512686     0.98300
O1886       O  0.81539471  0.30286725  0.76310525    -0.62800
O1887       O  0.87018250  0.31010545  0.65455428    -0.57600
O1888       O  0.86070935  0.30663650  0.75506109    -0.94300
O1889       O  0.88366134  0.30966394  0.71849597    -0.92800
O1890       O  0.81892983  0.30651634  0.64291257    -0.93100
O1891       O  0.79320935  0.30798295  0.68644678    -0.91900
C1892       C  0.87589296  0.31523402  0.74141380     1.17200
H1893       H  0.85172763  0.27891676  0.63713606     0.33100
H1894       H  0.79670318  0.26953399  0.72472097     0.44000
H1895       H  0.88800631  0.27703272  0.74227957     0.37500
H1896       H  0.85543696  0.21320989  0.69804391     0.34000
H1897       H  0.76665222  0.28108113  0.66074835     0.25800
H1898       H  0.82377857  0.21006344  0.76208251     0.31700
H1899       H  0.86660062  0.20144031  0.74325281     0.37600
H1900       H  0.80534073  0.30691886  0.63138063     0.32100
H1901       H  0.86942605  0.32138976  0.66609322     0.30900
H1902       H  0.91557391  0.30864129  0.67955695     0.32600
H1903       H  0.92090888  0.25522834  0.74992144     0.31600
H1904       H  0.79892773  0.31089316  0.70481518     0.35600
H1905       H  0.81871638  0.31364508  0.75116349     0.28300
H1906       H  0.86144433  0.21491795  0.61090287     0.32500
H1907       H  0.91390072  0.21001175  0.73054178     0.35400
H1908       H  0.88424369  0.31152983  0.64408195     0.28000
H1909       H  0.80013534  0.29903078  0.75753810     0.40900
H1910       H  0.77122445  0.22014664  0.71967884     0.30900
H1911       H  0.77105910  0.26153346  0.67395169     0.38600
H1912       H  0.92235479  0.25568705  0.71817475     0.30400
H1913       H  0.80273787  0.20182485  0.74737492     0.30500
H1914       H  0.87583444  0.20751155  0.63555052     0.30700
Zr1915     Zr  0.85471731  0.02184679  0.62592150     2.17500
O1916       O  0.87578745  0.04167088  0.65696348    -0.51600
O1917       O  0.83221471  0.01478830  0.66656668    -0.74800
O1918       O  0.84035522  0.05380054  0.62760523    -0.81600
O1919       O  0.90255654  0.98642570  0.62956571    -0.83400
O1920       O  0.81590194  0.05807403  0.59303501    -0.79000
O1921       O  0.89005730  0.01369304  0.64729933    -0.90600
O1922       O  0.80929980  0.99034891  0.65763598    -0.76600
O1923       O  0.81738609  0.01627057  0.61127852    -0.86100
O1924       O  0.85009228  0.98880657  0.62608808    -0.85800
O1925       O  0.85355718  0.03553419  0.58105851    -0.72500
O1926       O  0.88227438  0.00974368  0.59477478    -0.84700
Zr1927     Zr  0.83757751  0.98373601  0.53523851     2.26400
Zr1928     Zr  0.81605021  0.02939807  0.56668667     2.06300
Zr1929     Zr  0.87699139  0.97676328  0.59466184     2.10000
Zr1930     Zr  0.81308477  0.98317399  0.61019951     1.78800
O1931       O  0.91602362  0.96898799  0.58545642    -0.93500
O1932       O  0.77380229  0.99104529  0.61768372    -0.41300
O1933       O  0.83993336  0.97004718  0.57955451    -0.77900
O1934       O  0.80998182  0.99633624  0.56581107    -0.96600
O1935       O  0.84254183  0.01678028  0.53527231    -0.89900
O1936       O  0.87488675  0.98938799  0.55001684    -0.92700
C1937       C  0.81739086  0.00265149  0.67360271     1.01000
C1938       C  0.90430833  0.00030262  0.64571427     1.14000
C1939       C  0.82653354  0.06392614  0.61401302     1.04700
O1940       O  0.77703902  0.03285111  0.58040844    -0.94900
O1941       O  0.79566157  0.02272924  0.52584142    -0.90600
O1942       O  0.80745859  0.99550193  0.50688985    -0.83800
C1943       C  0.79470553  0.00993913  0.50776281     1.11400
O1944       O  0.90307240  0.04739319  0.56713944    -0.96900
Zr1945     Zr  0.87980763  0.02219386  0.54971893     1.88900
O1946       O  0.85754091  0.99044058  0.49343585    -0.73500
O1947       O  0.81386440  0.05631990  0.53641214    -0.52800
O1948       O  0.87507450  0.05005381  0.52183263    -0.97400
O1949       O  0.91947805  0.01450652  0.54534762    -0.54700
O1950       O  0.88340599  0.01274933  0.50241415    -0.74000
C1951       C  0.87354875  0.00132932  0.48625516     0.98300
O1952       O  0.81279977  0.95858328  0.52071035    -0.62800
O1953       O  0.87282516  0.95103049  0.62664402    -0.57600
O1954       O  0.85715133  0.95412733  0.52798464    -0.94300
O1955       O  0.88072898  0.95061913  0.56396278    -0.92800
O1956       O  0.81867383  0.95332150  0.63290821    -0.93100
O1957       O  0.78712761  0.96011016  0.59221089    -0.91900
C1958       C  0.87226010  0.94517489  0.54138491     1.17200
H1959       H  0.85251526  0.98362410  0.64395248     0.33100
H1960       H  0.79509294  0.99365374  0.55918479     0.44000
H1961       H  0.88571329  0.98345293  0.53822947     0.37500
H1962       H  0.85663183  0.04877802  0.58142331     0.34000
H1963       H  0.76913833  0.98323956  0.63331140     0.25800
H1964       H  0.80019856  0.06314606  0.54209353     0.31700
H1965       H  0.86074717  0.04815772  0.51209864     0.37600
H1966       H  0.80542855  0.95189268  0.64484471     0.32100
H1967       H  0.86475722  0.94127530  0.61636056     0.30900
H1968       H  0.91853371  0.95683358  0.59456488     0.32600
H1969       H  0.91993772  0.00274387  0.53485796     0.31600
H1970       H  0.79666163  0.95142075  0.58166749     0.35600
H1971       H  0.81526872  0.94840280  0.53401843     0.28300
H1972       H  0.86482810  0.04601026  0.67067597     0.32500
H1973       H  0.91245217  0.05145316  0.55163825     0.35400
H1974       H  0.88817501  0.94599927  0.62894980     0.28000
H1975       H  0.79746505  0.96302013  0.52491716     0.40900
H1976       H  0.76890879  0.02296752  0.57045018     0.30900
H1977       H  0.77399842  0.00392771  0.62490939     0.38600
H1978       H  0.92419171  0.01086161  0.56389430     0.30400
H1979       H  0.82645761  0.06449779  0.54177604     0.30500
H1980       H  0.87999034  0.05293850  0.64646641     0.30700
Zr1981     Zr  0.95719109  0.23730545  0.12834589     2.17500
O1982       O  0.93794942  0.21611085  0.15933695    -0.51600
O1983       O  0.98228873  0.24295131  0.16706817    -0.74800
O1984       O  0.97275954  0.20566168  0.12790678    -0.81600
O1985       O  0.90985520  0.27231790  0.13685801    -0.83400
O1986       O  0.99489029  0.20192524  0.09096523    -0.79000
O1987       O  0.92255708  0.24443127  0.15239263    -0.90600
O1988       O  0.00928003  0.26327225  0.15401797    -0.76600
O1989       O  0.99351923  0.24285358  0.11049669    -0.86100
O1990       O  0.96246054  0.27033472  0.12975459    -0.85800
O1991       O  0.95548431  0.22472104  0.08296586    -0.72500
O1992       O  0.92838462  0.25040876  0.09981103    -0.84700
Zr1993     Zr  0.96971871  0.27724483  0.03728619     2.26400
Zr1994     Zr  0.99206276  0.23081537  0.06531956     2.06300
Zr1995     Zr  0.93417055  0.28332059  0.10087845     2.10000
Zr1996     Zr  0.99853221  0.27583215  0.11057125     1.78800
O1997       O  0.89518622  0.29328923  0.09815090    -0.93500
O1998       O  0.03817504  0.26853340  0.10485298    -0.41300
O1999       O  0.97030233  0.28984389  0.08246936    -0.77900
O2000       O  0.99863663  0.26389079  0.06536117    -0.96600
O2001       O  0.96421009  0.24431000  0.03642875    -0.89900
O2002       O  0.93336411  0.27172937  0.05544311    -0.92700
C2003       C  0.00057507  0.25204148  0.17123104     1.01000
C2004       C  0.90822140  0.25781686  0.15207782     1.14000
C2005       C  0.98596586  0.19586891  0.11299048     1.04700
O2006       O  0.03174962  0.22502881  0.07341730    -0.94900
O2007       O  0.01215482  0.23826878  0.02454624    -0.90600
O2008       O  0.99896644  0.26565314  0.00724581    -0.83800
C2009       C  0.01224977  0.25150052  0.00704794     1.11400
O2010       O  0.90206081  0.21558265  0.07154658    -0.96900
Zr2011     Zr  0.92784585  0.23905896  0.05406876     1.88900
O2012       O  0.94823785  0.27117553  0.99626621    -0.73500
O2013       O  0.98761985  0.20502672  0.03363639    -0.52800
O2014       O  0.93018739  0.21014202  0.02830668    -0.97400
O2015       O  0.88890978  0.24945961  0.05232538    -0.54700
O2016       O  0.92340877  0.24829108  0.00641198    -0.74000
C2017       C  0.93230774  0.26001669  0.98974655     0.98300
O2018       O  0.99413159  0.30200137  0.02039336    -0.62800
O2019       O  0.94267536  0.30896296  0.13158560    -0.57600
O2020       O  0.94914220  0.30674405  0.03242562    -0.94300
O2021       O  0.92809994  0.30957017  0.07070193    -0.92800
O2022       O  0.99718859  0.30223002  0.14169971    -0.93100
O2023       O  0.01951166  0.30346142  0.09709585    -0.91900
C2024       C  0.93475911  0.31536929  0.04738759     1.17200
H2025       H  0.96123336  0.27503674  0.14806399     0.33100
H2026       H  0.01316878  0.26661216  0.05774724     0.44000
H2027       H  0.92190619  0.27789423  0.04482626     0.37500
H2028       H  0.95241258  0.21148107  0.08330170     0.34000
H2029       H  0.04597439  0.27640248  0.11836657     0.25800
H2030       H  0.00156244  0.19761416  0.03548520     0.31700
H2031       H  0.94083047  0.21284057  0.01338101     0.37600
H2032       H  0.99217251  0.29705406  0.15933313     0.32100
H2033       H  0.95533364  0.31556529  0.12282576     0.30900
H2034       H  0.89429179  0.30470040  0.10939950     0.32600
H2035       H  0.88762716  0.25694813  0.03547979     0.31600
H2036       H  0.01660512  0.30477651  0.07739733     0.35600
H2037       H  0.99126345  0.31282265  0.03237399     0.28300
H2038       H  0.94943677  0.21200878  0.17257716     0.32500
H2039       H  0.89175802  0.21274091  0.05635504     0.35400
H2040       H  0.92986073  0.31766322  0.12966578     0.28000
H2041       H  0.00950752  0.29801633  0.02533885     0.40900
H2042       H  0.03294509  0.22278787  0.09321575     0.30900
H2043       H  0.03982591  0.25567688  0.11197593     0.38600
H2044       H  0.88756645  0.25868457  0.06717944     0.30400
H2045       H  0.97579327  0.19706633  0.04166986     0.30500
H2046       H  0.93418123  0.20485364  0.14864848     0.30700
Zr2047     Zr  0.95150606  0.02121978  0.15316017     2.17500
O2048       O  0.93166171  0.04409627  0.12526979    -0.51600
O2049       O  0.97447715  0.01357975  0.11371995    -0.74800
O2050       O  0.97074570  0.05113570  0.15059823    -0.81600
O2051       O  0.90173666  0.98836624  0.14759867    -0.83400
O2052       O  0.99480378  0.05385864  0.18594070    -0.79000
O2053       O  0.91677107  0.01450003  0.12917390    -0.90600
O2054       O  0.99879274  0.99062814  0.12537601    -0.76600
O2055       O  0.98783573  0.01320004  0.16913918    -0.86100
O2056       O  0.95351872  0.98799216  0.15307401    -0.85800
O2057       O  0.95333909  0.03473693  0.19778332    -0.72500
O2058       O  0.92245826  0.01105604  0.18341068    -0.84700
Zr2059     Zr  0.96373488  0.98205431  0.24479485     2.26400
Zr2060     Zr  0.98984069  0.02602313  0.21376580     2.06300
Zr2061     Zr  0.92517975  0.97783150  0.18397731     2.10000
Zr2062     Zr  0.98953191  0.97998943  0.17018281     1.78800
O2063       O  0.88569186  0.97393685  0.19513301    -0.93500
O2064       O  0.03008469  0.98399990  0.17050774    -0.41300
O2065       O  0.96120544  0.96871888  0.20031385    -0.77900
O2066       O  0.99292557  0.99256685  0.21476055    -0.96600
O2067       O  0.96162395  0.01535946  0.24483586    -0.89900
O2068       O  0.92739948  0.99016832  0.22877115    -0.92700
C2069       C  0.99093901  0.00254163  0.10855113     1.01000
C2070       C  0.90143010  0.00198306  0.13082417     1.14000
C2071       C  0.98564013  0.06008868  0.16410755     1.04700
O2072       O  0.02952541  0.02555130  0.20223304    -0.94900
O2073       O  0.01021978  0.01846488  0.25459305    -0.90600
O2074       O  0.99678220  0.99086576  0.27085040    -0.83800
C2075       C  0.01066635  0.00453766  0.27089748     1.11400
O2076       O  0.89984844  0.04833578  0.21544502    -0.96900
Zr2077     Zr  0.92538054  0.02323951  0.22841772     1.88900
O2078       O  0.94281411  0.98996139  0.28545891    -0.73500
O2079       O  0.99234659  0.05423983  0.24109962    -0.52800
O2080       O  0.93422870  0.05239781  0.25135288    -0.97400
O2081       O  0.88524574  0.01709782  0.23174621    -0.54700
O2082       O  0.92047060  0.01463341  0.27553629    -0.74000
C2083       C  0.92806673  0.00224479  0.29191412     0.98300
O2084       O  0.98233695  0.95552556  0.26634989    -0.62800
O2085       O  0.92506585  0.95185006  0.15216731    -0.57600
O2086       O  0.94322343  0.95252798  0.24854858    -0.94300
O2087       O  0.92001906  0.95073489  0.21215298    -0.92800
O2088       O  0.98129954  0.95317853  0.14157115    -0.93100
O2089       O  0.00943385  0.95177171  0.18382255    -0.91900
C2090       C  0.92805531  0.94426940  0.23439097     1.17200
H2091       H  0.95108045  0.98300762  0.13510445     0.33100
H2092       H  0.00750398  0.98883793  0.22143539     0.44000
H2093       H  0.91582604  0.98488769  0.24013180     0.37500
H2094       H  0.95176568  0.04814854  0.19697588     0.34000
H2095       H  0.03556413  0.97641627  0.15507611     0.25800
H2096       H  0.98735214  0.05047530  0.25948392     0.31700
H2097       H  0.94305233  0.04864946  0.26749098     0.37600
H2098       H  0.99400787  0.95245212  0.12867658     0.32100
H2099       H  0.93620445  0.94293388  0.15956461     0.30900
H2100       H  0.88030009  0.96402468  0.18280655     0.32600
H2101       H  0.88253625  0.01331688  0.25080943     0.31600
H2102       H  0.01421667  0.95415686  0.20274855     0.35600
H2103       H  0.99803104  0.95580213  0.25979900     0.28300
H2104       H  0.94218834  0.04755931  0.11056058     0.32500
H2105       H  0.89311697  0.05287026  0.23261917     0.35400
H2106       H  0.91041986  0.94567589  0.15504536     0.28000
H2107       H  0.98318791  0.95855097  0.28593744     0.40900
H2108       H  0.03444720  0.03867828  0.20393160     0.30900
H2109       H  0.03245782  0.99706352  0.16461413     0.38600
H2110       H  0.88283901  0.00559403  0.22110121     0.30400
H2111       H  0.00862561  0.05657135  0.24303477     0.30500
H2112       H  0.93011530  0.05543658  0.13658673     0.30700
C2113       C  0.98824148  0.15032690  0.15346195    -0.27900
C2114       C  0.99689448  0.13779576  0.13422912     0.01700
C2115       C  0.00302950  0.14472632  0.10842779     0.29800
C2116       C  0.99989995  0.16364260  0.10209619    -0.19700
C2117       C  0.99060241  0.17612790  0.12110583    -0.29100
C2118       C  0.98502546  0.16922339  0.14715770     0.43800
C2119       C  0.99729300  0.11740460  0.14053680     0.05000
O2120       O  0.01161878  0.13306931  0.08894634    -0.57600
H2121       H  0.00428995  0.16841614  0.08189618     0.17900
O2122       O  0.97635598  0.18075689  0.16672415    -0.64300
H2123       H  0.98296728  0.14533685  0.17322027     0.16400
C2124       C  0.00549518  0.11049304  0.16549947     0.28600
C2125       C  0.00268297  0.09159618  0.17232801    -0.25200
C2126       C  0.99164489  0.07924032  0.15464605    -0.24500
C2127       C  0.98494418  0.08595924  0.12886792     0.40100
C2128       C  0.98749844  0.10482988  0.12224715    -0.27000
O2129       O  0.01639839  0.12208768  0.18326714    -0.58900
H2130       H  0.00844698  0.08682523  0.19201917     0.15700
O2131       O  0.97515841  0.07439903  0.11017731    -0.60300
H2132       H  0.98090870  0.10976221  0.10303332     0.14200
H2133       H  0.96017159  0.17766579  0.16765100     0.46000
H2134       H  0.00629886  0.12331248  0.19918117     0.41400
H2135       H  0.98776647  0.06929445  0.09933696     0.44900
H2136       H  0.02770201  0.13162589  0.09355675     0.36300
C2137       C  0.88072086  0.98745975  0.41185376    -0.27900
C2138       C  0.89529436  0.00136998  0.40255066     0.01700
C2139       C  0.90285790  0.01508177  0.42069517     0.29800
C2140       C  0.89579843  0.01479788  0.44778852    -0.19700
C2141       C  0.88103793  0.00094071  0.45736275    -0.29100
C2142       C  0.87348043  0.98718161  0.43890740     0.43800
C2143       C  0.90299399  0.00125732  0.37402505     0.05000
O2144       O  0.91730913  0.02875628  0.41214655    -0.57600
H2145       H  0.90188724  0.02557540  0.46127451     0.17900
O2146       O  0.85942587  0.97312919  0.44708422    -0.64300
H2147       H  0.87485463  0.97679530  0.39801244     0.16400
C2148       C  0.91566490  0.98625933  0.36384971     0.28600
C2149       C  0.92355335  0.98668803  0.33711368    -0.25200
C2150       C  0.91910115  0.00204985  0.32007392    -0.24500
C2151       C  0.90607765  0.01699151  0.33035973     0.40100
C2152       C  0.89825753  0.01650122  0.35713259    -0.27000
O2153       O  0.92076984  0.97124463  0.38004471    -0.58900
H2154       H  0.93331052  0.97496170  0.32981023     0.15700
O2155       O  0.90150927  0.03246671  0.31485439    -0.60300
H2156       H  0.88852198  0.02813485  0.36480835     0.14200
H2157       H  0.84410160  0.97768038  0.44287325     0.46000
H2158       H  0.93322898  0.97550362  0.39182454     0.41400
H2159       H  0.88622385  0.03041613  0.30754017     0.44900
H2160       H  0.93251432  0.02384959  0.41612590     0.36300
C2161       C  0.91024162  0.24939707  0.85939940    -0.27900
C2162       C  0.89847265  0.25988194  0.87871557     0.01700
C2163       C  0.87905876  0.26957569  0.87072540     0.29800
C2164       C  0.87187164  0.26896204  0.84360885    -0.19700
C2165       C  0.88366222  0.25853564  0.82393894    -0.29100
C2166       C  0.90304550  0.24862780  0.83227655     0.43800
C2167       C  0.90654525  0.26040904  0.90721197     0.05000
O2168       O  0.86721283  0.27996841  0.88918645    -0.57600
H2169       H  0.85691211  0.27666502  0.83805976     0.17900
O2170       O  0.91514141  0.23810757  0.81420617    -0.64300
H2171       H  0.92513751  0.24176094  0.86540059     0.16400
C2172       C  0.89795027  0.24805365  0.92676308     0.28600
C2173       C  0.90644162  0.24811835  0.95333262    -0.25200
C2174       C  0.92355752  0.26054698  0.96116007    -0.24500
C2175       C  0.93199408  0.27309271  0.94130833     0.40100
C2176       C  0.92345202  0.27292240  0.91470668    -0.27000
O2177       O  0.88161955  0.23548885  0.91987287    -0.58900
H2178       H  0.89958105  0.23826636  0.96780464     0.15700
O2179       O  0.94845261  0.28570513  0.94755825    -0.60300
H2180       H  0.93018138  0.28253103  0.89977697     0.14200
H2181       H  0.92797466  0.24606649  0.80879110     0.46000
H2182       H  0.86725732  0.24172638  0.92444117     0.41400
H2183       H  0.96270612  0.27957440  0.94222714     0.44900
H2184       H  0.85570836  0.27137577  0.89658161     0.36300
C2185       C  0.83128425  0.11034094  0.65173904    -0.27900
C2186       C  0.81795529  0.12208685  0.63562175     0.01700
C2187       C  0.80710043  0.11459703  0.61276404     0.29800
C2188       C  0.80980356  0.09569289  0.60622689    -0.19700
C2189       C  0.82320949  0.08379588  0.62231371    -0.29100
C2190       C  0.83384178  0.09141064  0.64547041     0.43800
C2191       C  0.81629718  0.14223253  0.64241762     0.05000
O2192       O  0.79385040  0.12565942  0.59661535    -0.57600
H2193       H  0.80144448  0.09041957  0.58830195     0.17900
O2194       O  0.84720092  0.08067981  0.66192342    -0.64300
H2195       H  0.84009534  0.11594650  0.66913215     0.16400
C2196       C  0.80965006  0.14811050  0.66847807     0.28600
C2197       C  0.81041150  0.16706804  0.67535383    -0.25200
C2198       C  0.81811088  0.18047807  0.65666761    -0.24500
C2199       C  0.82358803  0.17461922  0.63005524     0.40100
C2200       C  0.82274550  0.15567134  0.62321440    -0.27000
O2201       O  0.80227705  0.13539173  0.68732057    -0.58900
H2202       H  0.80584974  0.17112088  0.69580920     0.15700
O2203       O  0.83034653  0.18717953  0.61069119    -0.60300
H2204       H  0.82787331  0.15139717  0.60304692     0.14200
H2205       H  0.83720852  0.07627410  0.67669706     0.46000
H2206       H  0.81473557  0.13402706  0.70051095     0.41400
H2207       H  0.81644441  0.19083713  0.60100814     0.44900
H2208       H  0.77846082  0.12418432  0.60391846     0.36300
C2209       C  0.06596285  0.99007252  0.30015250    -0.27900
C2210       C  0.07016744  0.00456859  0.31854951     0.01700
C2211       C  0.05380091  0.01855538  0.32246862     0.29800
C2212       C  0.03390766  0.01813748  0.30750114    -0.19700
C2213       C  0.02980192  0.00355418  0.28930631    -0.29100
C2214       C  0.04579843  0.98934719  0.28588492     0.43800
C2215       C  0.09179676  0.00504028  0.33316042     0.05000
O2216       O  0.05718912  0.03279478  0.34057131    -0.57600
H2217       H  0.02176502  0.02928563  0.30986042     0.17900
O2218       O  0.04257543  0.97551814  0.26706069    -0.64300
H2219       H  0.07857160  0.97950457  0.29632352     0.16400
C2220       C  0.09973046  0.98918174  0.34713812     0.28600
C2221       C  0.12013335  0.98993837  0.36098855    -0.25200
C2222       C  0.13258121  0.00649901  0.36165504    -0.24500
C2223       C  0.12479202  0.02230467  0.34754054     0.40100
C2224       C  0.10465941  0.02143054  0.33311562    -0.27000
O2225       O  0.08690418  0.97334808  0.34894408    -0.58900
H2226       H  0.12565822  0.97783249  0.37242006     0.15700
O2227       O  0.13652443  0.03873890  0.34818510    -0.60300
H2228       H  0.09897086  0.03364899  0.32208752     0.14200
H2229       H  0.03856183  0.96427246  0.27775936     0.46000
H2230       H  0.09448158  0.96402062  0.33724335     0.41400
H2231       H  0.14571207  0.03874673  0.33140223     0.44900
H2232       H  0.05381804  0.02737559  0.35866109     0.36300
C2233       C  0.25335473  0.85856445  0.37464677    -0.27900
C2234       C  0.23811819  0.86586720  0.39354691     0.01700
C2235       C  0.22253267  0.85394348  0.40596946     0.29800
C2236       C  0.22174357  0.83511242  0.39875610    -0.19700
C2237       C  0.23654299  0.82766332  0.37925120    -0.29100
C2238       C  0.25288379  0.83958628  0.36769929     0.43800
C2239       C  0.23761221  0.88610670  0.39927419     0.05000
O2240       O  0.20711751  0.86083383  0.42406015    -0.57600
H2241       H  0.20902190  0.82646857  0.40810580     0.17900
O2242       O  0.26815080  0.83304914  0.34917505    -0.64300
H2243       H  0.26553584  0.86765897  0.36510338     0.16400
C2244       C  0.24345764  0.89300282  0.42499558     0.28600
C2245       C  0.24079360  0.91198376  0.43081071    -0.25200
C2246       C  0.23223400  0.92444926  0.41122657    -0.24500
C2247       C  0.22691477  0.91747590  0.38514270     0.40100
C2248       C  0.22968262  0.89847007  0.37939055    -0.27000
O2249       O  0.25132515  0.88120425  0.44479046    -0.58900
H2250       H  0.24498243  0.91684434  0.45099454     0.15700
O2251       O  0.21866336  0.92896134  0.36519587    -0.60300
H2252       H  0.22505664  0.89325782  0.35952595     0.14200
H2253       H  0.28054453  0.82774194  0.36019335     0.46000
H2254       H  0.26781188  0.88092840  0.44224572     0.41400
H2255       H  0.23206466  0.93405902  0.35588126     0.44900
H2256       H  0.21297526  0.85744492  0.44226201     0.36300
C2257       C  0.13062010  0.74342020  0.12651158    -0.27900
C2258       C  0.15169031  0.75100810  0.13250307     0.01700
C2259       C  0.16443085  0.75904930  0.11149714     0.29800
C2260       C  0.15607537  0.75941823  0.08496949    -0.19700
C2261       C  0.13493244  0.75185381  0.07881578    -0.29100
C2262       C  0.12213837  0.74388207  0.10002903     0.43800
C2263       C  0.16015699  0.75064849  0.16076428     0.05000
O2264       O  0.18504606  0.76667948  0.11673584    -0.57600
H2265       H  0.16630113  0.76559477  0.06915511     0.17900
O2266       O  0.10126805  0.73659784  0.09526334    -0.64300
H2267       H  0.12068950  0.73707528  0.14246256     0.16400
C2268       C  0.14778918  0.75881683  0.18197253     0.28600
C2269       C  0.15621807  0.75856159  0.20848776    -0.25200
C2270       C  0.17701236  0.75017311  0.21442132    -0.24500
C2271       C  0.18949279  0.74220986  0.19298318     0.40100
C2272       C  0.18093428  0.74234754  0.16651702    -0.27000
O2273       O  0.12792454  0.76781649  0.17674072    -0.58900
H2274       H  0.14635526  0.76495024  0.22445377     0.15700
O2275       O  0.21025029  0.73455517  0.19749075    -0.60300
H2276       H  0.19064760  0.73603814  0.15034890     0.14200
H2277       H  0.09073766  0.74718548  0.09774429     0.46000
H2278       H  0.11605105  0.75913168  0.18294831     0.41400
H2279       H  0.22102011  0.74482021  0.19402310     0.44900
H2280       H  0.18216596  0.78015776  0.11967050     0.36300
C2281       C  0.01893387  0.01039000  0.97953389    -0.27900
C2282       C  0.03235011  0.00681976  0.00234133     0.01700
C2283       C  0.05554420  0.00383315  0.99877298     0.29800
C2284       C  0.06491626  0.00448434  0.97274217    -0.19700
C2285       C  0.05157752  0.00851857  0.94998232    -0.29100
C2286       C  0.02834336  0.01140681  0.95358633     0.43800
C2287       C  0.02193046  0.00600428  0.02964938     0.05000
O2288       O  0.06927879  0.00047402  0.02059344    -0.57600
H2289       H  0.08278487  0.00226064  0.97043263     0.17900
O2290       O  0.01459357  0.01506039  0.93188417    -0.64300
H2291       H  0.00100428  0.01223640  0.98178393     0.16400
C2292       C  0.00780596  0.02040610  0.03900366     0.28600
C2293       C  0.99791770  0.01914854  0.06471861    -0.25200
C2294       C  0.00176831  0.00358382  0.08148161    -0.24500
C2295       C  0.01620167  0.98926686  0.07211983     0.40100
C2296       C  0.02590560  0.99051227  0.04637663    -0.27000
O2297       O  0.00421447  0.03607412  0.02353223    -0.58900
H2298       H  0.98731542  0.03049594  0.07156689     0.15700
O2299       O  0.02044193  0.97366289  0.08749331    -0.60300
H2300       H  0.03641664  0.97916433  0.03932391     0.14200
H2301       H  0.00874311  0.00273212  0.92619485     0.46000
H2302       H  0.98857592  0.03501233  0.01688167     0.41400
H2303       H  0.03482093  0.97623595  0.09686565     0.44900
H2304       H  0.07134855  0.01277206  0.02943301     0.36300
C2305       C  0.00242430  0.01403332  0.70380000    -0.27900
C2306       C  0.98341659  0.00409091  0.71203830     0.01700
C2307       C  0.98351797  0.99433671  0.73675248     0.29800
C2308       C  0.00265883  0.99434329  0.75283210    -0.19700
C2309       C  0.02187847  0.00427171  0.74483950    -0.29100
C2310       C  0.02161568  0.01429255  0.72009924     0.43800
C2311       C  0.96356187  0.00346675  0.69457644     0.05000
O2312       O  0.96489907  0.98481648  0.74541540    -0.57600
H2313       H  0.00223231  0.98679086  0.77191133     0.17900
O2314       O  0.04015694  0.02383643  0.71124302    -0.64300
H2315       H  0.00242048  0.02146016  0.68460580     0.16400
C2316       C  0.95054217  0.01948747  0.69001099     0.28600
C2317       C  0.93100498  0.01823574  0.67450529    -0.25200
C2318       C  0.92443943  0.00111324  0.66309111    -0.24500
C2319       C  0.93771996  0.98506984  0.66781449     0.40100
C2320       C  0.95709726  0.98638299  0.68344039    -0.27000
O2321       O  0.95638900  0.03622969  0.70142280    -0.58900
H2322       H  0.92117043  0.03075201  0.67116907     0.15700
O2323       O  0.93197606  0.96800358  0.65737259    -0.60300
H2324       H  0.96709582  0.97397651  0.68704372     0.14200
H2325       H  0.03671285  0.03719857  0.71445391     0.46000
H2326       H  0.96417494  0.04320350  0.68679503     0.41400
H2327       H  0.92236807  0.96212067  0.67140711     0.44900
H2328       H  0.95496426  0.99442982  0.75350909     0.36300
C2329       C  0.16191881  0.00070128  0.67676462    -0.27900
C2330       C  0.14708311  0.00495541  0.65556722     0.01700
C2331       C  0.12482009  0.00992476  0.66174484     0.29800
C2332       C  0.11773553  0.01071034  0.68884892    -0.19700
C2333       C  0.13261919  0.00655295  0.71018691    -0.29100
C2334       C  0.15492110  0.00153705  0.70385035     0.43800
C2335       C  0.15515821  0.00449360  0.62712712     0.05000
O2336       O  0.10993633  0.01423840  0.64144547    -0.57600
H2337       H  0.10050933  0.01450910  0.69315697     0.17900
O2338       O  0.17017197  0.99770271  0.72394542    -0.64300
H2339       H  0.17906984  0.99677205  0.67228064     0.16400
C2340       C  0.17291615  0.01598317  0.61864536     0.28600
C2341       C  0.18026988  0.01546814  0.59165280    -0.25200
C2342       C  0.17027647  0.00343626  0.57260225    -0.24500
C2343       C  0.15246736  0.99183506  0.58136149     0.40100
C2344       C  0.14512758  0.99244901  0.60837045    -0.27000
O2345       O  0.18259479  0.02831160  0.63638136    -0.58900
H2346       H  0.19384958  0.02461586  0.58569921     0.15700
O2347       O  0.14210140  0.97974469  0.56386855    -0.60300
H2348       H  0.13155338  0.98341567  0.61474065     0.14200
H2349       H  0.17731956  0.00984458  0.72813290     0.46000
H2350       H  0.19677614  0.02228316  0.64222023     0.41400
H2351       H  0.12917222  0.98680019  0.55640392     0.44900
H2352       H  0.11214842  0.02772796  0.63782055     0.36300
C2353       C  0.06373236  0.89703533  0.87075559    -0.27900
C2354       C  0.07416999  0.89176344  0.89507304     0.01700
C2355       C  0.08496522  0.90536813  0.91079772     0.29800
C2356       C  0.08560421  0.92394001  0.90185322    -0.19700
C2357       C  0.07555363  0.92936528  0.87709935    -0.29100
C2358       C  0.06430073  0.91559680  0.86171232     0.43800
C2359       C  0.07544471  0.87178802  0.90259278     0.05000
O2360       O  0.09610317  0.90042814  0.93410818    -0.57600
H2361       H  0.09446631  0.93401794  0.91416922     0.17900
O2362       O  0.05401071  0.91997261  0.83762509    -0.64300
H2363       H  0.05546707  0.88660190  0.85842837     0.16400
C2364       C  0.06376348  0.86455855  0.92506117     0.28600
C2365       C  0.06596618  0.84564554  0.93200560    -0.25200
C2366       C  0.07974874  0.83357947  0.91671159    -0.24500
C2367       C  0.09135943  0.84107094  0.89406458     0.40100
C2368       C  0.08895343  0.85990291  0.88714159    -0.27000
O2369       O  0.05014773  0.87585071  0.94034330    -0.58900
H2370       H  0.05683074  0.84046532  0.94946788     0.15700
O2371       O  0.10506562  0.83020805  0.87830208    -0.60300
H2372       H  0.09802171  0.86535405  0.86978243     0.14200
H2373       H  0.06512459  0.91685107  0.82334560     0.46000
H2374       H  0.03573581  0.87638713  0.93033298     0.41400
H2375       H  0.12044457  0.83258734  0.88510418     0.44900
H2376       H  0.08515392  0.90239222  0.94898422     0.36300
C2377       C  0.70008994  0.26158484  0.83265702    -0.27900
C2378       C  0.71828059  0.25099277  0.84199209     0.01700
C2379       C  0.71627172  0.24005536  0.86540109     0.29800
C2380       C  0.69605844  0.23971673  0.87934872    -0.19700
C2381       C  0.67744068  0.24997333  0.86996218    -0.29100
C2382       C  0.67964120  0.26112140  0.84645753     0.43800
C2383       C  0.73928376  0.25105289  0.82686874     0.05000
O2384       O  0.73418992  0.23003211  0.87511957    -0.57600
H2385       H  0.69511183  0.23142985  0.89773555     0.17900
O2386       O  0.66209012  0.27157418  0.83679021    -0.64300
H2387       H  0.70171799  0.27001994  0.81446995     0.16400
C2388       C  0.74576821  0.23528257  0.81202185     0.28600
C2389       C  0.76551268  0.23568107  0.79708898    -0.25200
C2390       C  0.77868616  0.25193676  0.79605868    -0.24500
C2391       C  0.77245968  0.26753316  0.81189345     0.40100
C2392       C  0.75275714  0.26697099  0.82712940    -0.27000
O2393       O  0.73251807  0.21966229  0.81125928    -0.58900
H2394       H  0.76993774  0.22345992  0.78530811     0.15700
O2395       O  0.78454602  0.28378615  0.81123485    -0.60300
H2396       H  0.74771792  0.27910737  0.83874037     0.14200
H2397       H  0.65318654  0.26290282  0.82545063     0.46000
H2398       H  0.72105719  0.22230646  0.79716448     0.41400
H2399       H  0.79372537  0.28361959  0.82801859     0.44900
H2400       H  0.73167767  0.21705106  0.86889407     0.36300
C2401       C  0.56606724  0.39792285  0.86411780    -0.27900
C2402       C  0.57544625  0.39207547  0.88886369     0.01700
C2403       C  0.58599510  0.40538927  0.90547612     0.29800
C2404       C  0.58708173  0.42413320  0.89724321    -0.19700
C2405       C  0.57771891  0.43011445  0.87242312    -0.29100
C2406       C  0.56711204  0.41665935  0.85582939     0.43800
C2407       C  0.57535840  0.37188837  0.89623108     0.05000
O2408       O  0.59645320  0.40001322  0.92904980    -0.57600
H2409       H  0.59552815  0.43397818  0.91036534     0.17900
O2410       O  0.55798232  0.42150778  0.83125023    -0.64300
H2411       H  0.55804774  0.38783324  0.85097323     0.16400
C2412       C  0.56611013  0.36539633  0.92083796     0.28600
C2413       C  0.56722215  0.34634985  0.92758886    -0.25200
C2414       C  0.57743261  0.33335039  0.91003177    -0.24500
C2415       C  0.58600383  0.33991697  0.88494817     0.40100
C2416       C  0.58480798  0.35892420  0.87828580    -0.27000
O2417       O  0.55590243  0.37753870  0.93844284    -0.58900
H2418       H  0.56034173  0.34182370  0.94686450     0.15700
O2419       O  0.59521665  0.32787219  0.86642555    -0.60300
H2420       H  0.59172652  0.36361662  0.85910213     0.14200
H2421       H  0.56971294  0.41854400  0.81763706     0.46000
H2422       H  0.54023121  0.37862575  0.93191782     0.41400
H2423       H  0.61154204  0.33047194  0.86670447     0.44900
H2424       H  0.58695973  0.40495446  0.94393757     0.36300
C2425       C  0.79104574  0.24150702  0.54192885    -0.27900
C2426       C  0.77911318  0.25722547  0.53269755     0.01700
C2427       C  0.77760722  0.27297715  0.54960328     0.29800
C2428       C  0.78828747  0.27299809  0.57494055    -0.19700
C2429       C  0.80076951  0.25746237  0.58397357    -0.29100
C2430       C  0.80179597  0.24152263  0.56729407     0.43800
C2431       C  0.76870764  0.25711962  0.50522847     0.05000
O2432       O  0.76599215  0.28853506  0.54139875    -0.57600
H2433       H  0.78705277  0.28540028  0.58740398     0.17900
O2434       O  0.81228259  0.22558553  0.57612221    -0.64300
H2435       H  0.79189216  0.22908750  0.52946366     0.16400
C2436       C  0.78181287  0.25357119  0.48204019     0.28600
C2437       C  0.77179577  0.25291419  0.45634972    -0.25200
C2438       C  0.74862747  0.25585236  0.45307777    -0.24500
C2439       C  0.73554402  0.25978218  0.47626119     0.40100
C2440       C  0.74560844  0.26040489  0.50205371    -0.27000
O2441       O  0.80461197  0.25147381  0.48420463    -0.58900
H2442       H  0.78231707  0.25026181  0.43882636     0.15700
O2443       O  0.71288423  0.26266505  0.47406090    -0.60300
H2444       H  0.73526875  0.26313210  0.51970249     0.14200
H2445       H  0.82698208  0.22542954  0.56673199     0.46000
H2446       H  0.80744966  0.23792829  0.48195025     0.41400
H2447       H  0.70600887  0.25024394  0.47708803     0.44900
H2448       H  0.77728396  0.29664289  0.53250861     0.36300
C2449       C  0.86625844  0.24268940  0.20654534    -0.27900
C2450       C  0.84820865  0.25465211  0.20079079     0.01700
C2451       C  0.84983822  0.26713583  0.17883615     0.29800
C2452       C  0.86946482  0.26800625  0.16354000    -0.19700
C2453       C  0.88786791  0.25636992  0.16940175    -0.29100
C2454       C  0.88599360  0.24343853  0.19104597     0.43800
C2455       C  0.82795647  0.25476802  0.21817446     0.05000
O2456       O  0.83226130  0.27863013  0.17214535    -0.57600
H2457       H  0.87009342  0.27779152  0.14676324     0.17900
O2458       O  0.90326135  0.23155799  0.19741468    -0.64300
H2459       H  0.86521979  0.23301711  0.22343722     0.16400
C2460       C  0.81455288  0.23879991  0.22139996     0.28600
C2461       C  0.79478669  0.23977212  0.23676526    -0.25200
C2462       C  0.78814578  0.25655996  0.24927007    -0.24500
C2463       C  0.80164861  0.27256893  0.24571632     0.40100
C2464       C  0.82139678  0.27149548  0.23056534    -0.27000
O2465       O  0.82013678  0.22242867  0.20867765    -0.58900
H2466       H  0.78475923  0.22728257  0.23905042     0.15700
O2467       O  0.79567803  0.28943837  0.25669931    -0.60300
H2468       H  0.83155789  0.28391127  0.22817587     0.14200
H2469       H  0.91298239  0.23867095  0.21000408     0.46000
H2470       H  0.82724142  0.21459970  0.22291211     0.41400
H2471       H  0.78696329  0.29587514  0.24229540     0.44900
H2472       H  0.82174202  0.27068227  0.16173858     0.36300
C2473       C  0.63524467  0.24375245  0.12013560    -0.27900
C2474       C  0.65291242  0.25582877  0.12648851     0.01700
C2475       C  0.66221128  0.26710844  0.10608570     0.29800
C2476       C  0.65370786  0.26629816  0.07969694    -0.19700
C2477       C  0.63589089  0.25421638  0.07306628    -0.29100
C2478       C  0.62669735  0.24285254  0.09373515     0.43800
C2479       C  0.66133704  0.25657141  0.15460208     0.05000
O2480       O  0.67957357  0.27900283  0.11175102    -0.57600
H2481       H  0.66117663  0.27523685  0.06442201     0.17900
O2482       O  0.60963647  0.23059405  0.08842862    -0.64300
H2483       H  0.62812124  0.23488553  0.13574962     0.16400
C2484       C  0.64722863  0.26239110  0.17579557     0.28600
C2485       C  0.65499220  0.26212332  0.20254281    -0.25200
C2486       C  0.67679704  0.25591750  0.20868280    -0.24500
C2487       C  0.69112326  0.25053294  0.18722243     0.40100
C2488       C  0.68331829  0.25089017  0.16041523    -0.27000
O2489       O  0.62599439  0.26879273  0.17041774    -0.58900
H2490       H  0.64372210  0.26652449  0.21856843     0.15700
O2491       O  0.71275177  0.24494824  0.19212237    -0.60300
H2492       H  0.69433578  0.24647435  0.14413769     0.14200
H2493       H  0.59567374  0.23746897  0.09289184     0.46000
H2494       H  0.61592416  0.25817899  0.17460860     0.41400
H2495       H  0.72159742  0.25664061  0.19285840     0.44900
H2496       H  0.67236037  0.29069440  0.11805812     0.36300
C2497       C  0.67521120  0.52222447  0.61878297    -0.27900
C2498       C  0.65995191  0.50862926  0.62736942     0.01700
C2499       C  0.65273171  0.49494470  0.60900360     0.29800
C2500       C  0.66063367  0.49507792  0.58225704    -0.19700
C2501       C  0.67568812  0.50890324  0.57321348    -0.29100
C2502       C  0.68309252  0.52249526  0.59200099     0.43800
C2503       C  0.65145487  0.50899389  0.65550728     0.05000
O2504       O  0.63770052  0.48153031  0.61691518    -0.57600
H2505       H  0.65470597  0.48438486  0.56852119     0.17900
O2506       O  0.69737950  0.53651967  0.58430786    -0.64300
H2507       H  0.68076556  0.53287274  0.63283537     0.16400
C2508       C  0.66548693  0.50425561  0.67736409     0.28600
C2509       C  0.65715270  0.50465945  0.70392435    -0.25200
C2510       C  0.63487400  0.51003208  0.70916801    -0.24500
C2511       C  0.62087647  0.51487626  0.68709636     0.40100
C2512       C  0.62921598  0.51427548  0.66052521    -0.27000
O2513       O  0.68716202  0.49864505  0.67284715    -0.58900
H2514       H  0.66822578  0.50087066  0.72048629     0.15700
O2515       O  0.59895150  0.51995622  0.69115870    -0.60300
H2516       H  0.61830876  0.51796826  0.64375162     0.14200
H2517       H  0.71241794  0.53248377  0.59060595     0.46000
H2518       H  0.69626897  0.51016073  0.67423235     0.41400
H2519       H  0.59037373  0.50812222  0.69064913     0.44900
H2520       H  0.64685404  0.47166745  0.62572105     0.36300
C2521       C  0.72522328  0.35911432  0.40798325    -0.27900
C2522       C  0.73409533  0.37192231  0.38931557     0.01700
C2523       C  0.74240728  0.36539501  0.36434887     0.29800
C2524       C  0.74088821  0.34641326  0.35789273    -0.19700
C2525       C  0.73096458  0.33359628  0.37595003    -0.29100
C2526       C  0.72351702  0.34013768  0.40152261     0.43800
C2527       C  0.73376372  0.39210517  0.39585664     0.05000
O2528       O  0.75257478  0.37742636  0.34646986    -0.57600
H2529       H  0.74710808  0.34184894  0.33832810     0.17900
O2530       O  0.71481259  0.32814949  0.42053547    -0.64300
H2531       H  0.71901345  0.36393115  0.42743932     0.16400
C2532       C  0.72246127  0.40491935  0.37899575     0.28600
C2533       C  0.72113311  0.42371295  0.38631522    -0.25200
C2534       C  0.73075502  0.43019617  0.41061108    -0.24500
C2535       C  0.74218341  0.41728965  0.42746589     0.40100
C2536       C  0.74360123  0.39846468  0.41996857    -0.27000
O2537       O  0.71213195  0.39916650  0.35559199    -0.58900
H2538       H  0.71223891  0.43319086  0.37294722     0.15700
O2539       O  0.75194586  0.42281643  0.45135101    -0.60300
H2540       H  0.75226766  0.38873467  0.43319207     0.14200
H2541       H  0.69843138  0.33054102  0.42050510     0.46000
H2542       H  0.69756585  0.39389067  0.36148775     0.41400
H2543       H  0.74181275  0.41830478  0.46592006     0.44900
H2544       H  0.74261721  0.37795651  0.33035795     0.36300
C2545       C  0.92344526  0.86424004  0.51119527    -0.27900
C2546       C  0.90470685  0.87109538  0.52536578     0.01700
C2547       C  0.89465974  0.85982590  0.54535407     0.29800
C2548       C  0.90381986  0.84244469  0.55171496    -0.19700
C2549       C  0.92323718  0.83582873  0.53860497    -0.29100
C2550       C  0.93268752  0.84670836  0.51759366     0.43800
C2551       C  0.89739354  0.89079656  0.52233189     0.05000
O2552       O  0.87645350  0.86605285  0.55980084    -0.57600
H2553       H  0.89592054  0.83432784  0.56763612     0.17900
O2554       O  0.95132683  0.84070039  0.50382795    -0.64300
H2555       H  0.93136890  0.87278085  0.49577360     0.16400
C2556       C  0.91213325  0.90530380  0.52938384     0.28600
C2557       C  0.90383105  0.92330593  0.53364281    -0.25200
C2558       C  0.88088015  0.92725587  0.53078919    -0.24500
C2559       C  0.86643735  0.91315999  0.52137603     0.40100
C2560       C  0.87474621  0.89504189  0.51724498    -0.27000
O2561       O  0.93441143  0.90177310  0.53407978    -0.58900
H2562       H  0.91523053  0.93404708  0.54057082     0.15700
O2563       O  0.84397282  0.91656684  0.51807240    -0.60300
H2564       H  0.86322319  0.88402136  0.51170768     0.14200
H2565       H  0.96421391  0.84633395  0.51350125     0.46000
H2566       H  0.93536856  0.89831852  0.55355675     0.41400
H2567       H  0.83699254  0.91318863  0.53568886     0.44900
H2568       H  0.88276590  0.87349901  0.57492396     0.36300
C2569       C  0.03624178  0.77069476  0.73699711    -0.27900
C2570       C  0.03415510  0.75431002  0.75251132     0.01700
C2571       C  0.02203636  0.73921968  0.74141281     0.29800
C2572       C  0.01158093  0.74094781  0.71600652    -0.19700
C2573       C  0.01340666  0.75742387  0.70061143    -0.29100
C2574       C  0.02640051  0.77222430  0.71119203     0.43800
C2575       C  0.04382600  0.75333939  0.78055412     0.05000
O2576       O  0.02030068  0.72262916  0.75518607    -0.57600
H2577       H  0.00219260  0.72920331  0.70818937     0.17900
O2578       O  0.02884256  0.78861125  0.69707364    -0.64300
H2579       H  0.04518003  0.78258038  0.74511321     0.16400
C2580       C  0.06589031  0.75931345  0.78630038     0.28600
C2581       C  0.07412645  0.75877314  0.81304004    -0.25200
C2582       C  0.06090121  0.75193310  0.83451795    -0.24500
C2583       C  0.03892094  0.74577943  0.82863127     0.40100
C2584       C  0.03059821  0.74666915  0.80206991    -0.27000
O2585       O  0.07968731  0.76556641  0.76594841    -0.58900
H2586       H  0.09108171  0.76345935  0.81688961     0.15700
O2587       O  0.02516203  0.73909157  0.84872825    -0.60300
H2588       H  0.01347402  0.74236550  0.79839468     0.14200
H2589       H  0.04335723  0.78739582  0.68739112     0.46000
H2590       H  0.08466828  0.75418813  0.75621111     0.41400
H2591       H  0.01761867  0.75025924  0.85634355     0.44900
H2592       H  0.03474704  0.71611741  0.75201289     0.36300
C2593       C  0.05601693  0.76788488  0.45678551    -0.27900
C2594       C  0.06927185  0.75174492  0.45751309     0.01700
C2595       C  0.06172011  0.73592145  0.47148076     0.29800
C2596       C  0.04177377  0.73672106  0.48611817    -0.19700
C2597       C  0.02892746  0.75323478  0.48708886    -0.29100
C2598       C  0.03574136  0.76865829  0.47115512     0.43800
C2599       C  0.09088300  0.75116338  0.44331529     0.05000
O2600       O  0.07439592  0.71992460  0.47212450    -0.57600
H2601       H  0.03688035  0.72448871  0.49762821     0.17900
O2602       O  0.02341639  0.78481711  0.47048235    -0.64300
H2603       H  0.06155637  0.77995883  0.44534409     0.16400
C2604       C  0.09280088  0.74130003  0.41891188     0.28600
C2605       C  0.11363478  0.73945135  0.40655825    -0.25200
C2606       C  0.13288331  0.74752250  0.41808172    -0.24500
C2607       C  0.13092390  0.75757008  0.44255164     0.40100
C2608       C  0.10991645  0.75932347  0.45504366    -0.27000
O2609       O  0.07437721  0.73325858  0.40712572    -0.58900
H2610       H  0.11457767  0.73193933  0.38751989     0.15700
O2611       O  0.14931830  0.76553919  0.45450645    -0.60300
H2612       H  0.10850022  0.76677837  0.47409005     0.14200
H2613       H  0.01425661  0.78395403  0.45372184     0.46000
H2614       H  0.06770086  0.74318923  0.39561598     0.41400
H2615       H  0.15653310  0.75533467  0.46498873     0.44900
H2616       H  0.06722225  0.71138969  0.45891341     0.36300
C2617       C  0.87934589  0.36432198  0.76982838    -0.27900
C2618       C  0.90062712  0.36979073  0.76046354     0.01700
C2619       C  0.91481284  0.35627230  0.74881034     0.29800
C2620       C  0.90704056  0.33810158  0.74474957    -0.19700
C2621       C  0.88504826  0.33304611  0.75186348    -0.29100
C2622       C  0.87149741  0.34611124  0.76562702     0.43800
C2623       C  0.90644387  0.38993346  0.75866641     0.05000
O2624       O  0.93569243  0.36100026  0.73940066    -0.57600
H2625       H  0.91787478  0.32819973  0.73451602     0.17900
O2626       O  0.84981972  0.34189506  0.77253221    -0.64300
H2627       H  0.86824953  0.37454247  0.77891182     0.16400
C2628       C  0.89254712  0.40216299  0.74384624     0.28600
C2629       C  0.89925386  0.42054443  0.73904169    -0.25200
C2630       C  0.92009975  0.42714893  0.74823175    -0.24500
C2631       C  0.93380087  0.41505043  0.76372107     0.40100
C2632       C  0.92687360  0.39664474  0.76892903    -0.27000
O2633       O  0.87287437  0.39599203  0.73260686    -0.58900
H2634       H  0.88837000  0.42947378  0.72709525     0.15700
O2635       O  0.95443685  0.42070488  0.77272980    -0.60300
H2636       H  0.93785189  0.38738113  0.78018286     0.14200
H2637       H  0.85077169  0.33628608  0.79091915     0.46000
H2638       H  0.87721201  0.39034323  0.71498724     0.41400
H2639       H  0.96502802  0.41732326  0.75799724     0.44900
H2640       H  0.93329789  0.36532494  0.72047244     0.36300
C2641       C  0.84939814  0.48968412  0.59377067    -0.27900
C2642       C  0.84502251  0.50663033  0.58067667     0.01700
C2643       C  0.86022184  0.52144151  0.58288529     0.29800
C2644       C  0.87930455  0.51936466  0.59896698    -0.19700
C2645       C  0.88358095  0.50247570  0.61271793    -0.29100
C2646       C  0.86857664  0.48741624  0.60947899     0.43800
C2647       C  0.82501593  0.50815110  0.56364079     0.05000
O2648       O  0.85659340  0.53792453  0.56935973    -0.57600
H2649       H  0.89055298  0.53112441  0.60093104     0.17900
O2650       O  0.87261766  0.47031508  0.62109299    -0.64300
H2651       H  0.83784097  0.47811726  0.59178147     0.16400
C2652       C  0.82234868  0.49595637  0.54172432     0.28600
C2653       C  0.80285859  0.49659891  0.52643869    -0.25200
C2654       C  0.78557519  0.50930210  0.53265617    -0.24500
C2655       C  0.78841812  0.52174211  0.55458994     0.40100
C2656       C  0.80812437  0.52105460  0.56997063    -0.27000
O2657       O  0.83905158  0.48367842  0.53467868    -0.58900
H2658       H  0.80147862  0.48704725  0.50950290     0.15700
O2659       O  0.77195136  0.53420251  0.56165625    -0.60300
H2660       H  0.81008785  0.53036447  0.58711600     0.14200
H2661       H  0.86251706  0.46967685  0.63706870     0.46000
H2662       H  0.83395770  0.47131989  0.54133132     0.41400
H2663       H  0.77635040  0.54614653  0.55297195     0.44900
H2664       H  0.86344712  0.53614588  0.55118577     0.36300
C2665       C  0.99744828  0.61515609  0.67185581    -0.27900
C2666       C  0.98812990  0.62199664  0.64767427     0.01700
C2667       C  0.97672679  0.60958128  0.63041154     0.29800
C2668       C  0.97469947  0.59070803  0.63746951    -0.19700
C2669       C  0.98368638  0.58378711  0.66194598    -0.29100
C2670       C  0.99537089  0.59631735  0.67906784     0.43800
C2671       C  0.98970763  0.64218582  0.64096783     0.05000
O2672       O  0.96692902  0.61587509  0.60691005    -0.57600
H2673       H  0.96557347  0.58158283  0.62391465     0.17900
O2674       O  0.00418598  0.59056872  0.70341110    -0.64300
H2675       H  0.00631396  0.62451112  0.68534279     0.16400
C2676       C  0.98137673  0.65580800  0.65888463     0.28600
C2677       C  0.98111778  0.67461712  0.65112753    -0.25200
C2678       C  0.98913578  0.68034357  0.62551064    -0.24500
C2679       C  0.99852158  0.66669478  0.60814200     0.40100
C2680       C  0.99875225  0.64786522  0.61597612    -0.27000
O2681       O  0.97197410  0.65072948  0.68323459    -0.58900
H2682       H  0.97390691  0.68466021  0.66504148     0.15700
O2683       O  0.00702868  0.67142145  0.58318614    -0.60300
H2684       H  0.00559572  0.63756475  0.60217460     0.14200
H2685       H  0.02002894  0.58736241  0.69944685     0.46000
H2686       H  0.98301237  0.65445989  0.69725609     0.41400
H2687       H  0.99439623  0.66983076  0.57031411     0.44900
H2688       H  0.95123148  0.61887711  0.61194302     0.36300
C2689       C  0.91671135  0.40346222  0.03987923    -0.27900
C2690       C  0.90270613  0.39013578  0.02787937     0.01700
C2691       C  0.88121645  0.39565405  0.01892360     0.29800
C2692       C  0.87361096  0.41393476  0.02346331    -0.19700
C2693       C  0.88710953  0.42692271  0.03715554    -0.29100
C2694       C  0.90917100  0.42168979  0.04440127     0.43800
C2695       C  0.90962148  0.37018291  0.02824382     0.05000
O2696       O  0.86706085  0.38303339  0.00699958    -0.57600
H2697       H  0.85665088  0.41761436  0.01766197     0.17900
O2698       O  0.92323632  0.43405387  0.05702341    -0.64300
H2699       H  0.93318056  0.39948314  0.04714740     0.16400
C2700       C  0.93038910  0.36421743  0.01761689     0.28600
C2701       C  0.93795301  0.34587886  0.02232026    -0.25200
C2702       C  0.92512128  0.33339660  0.03792505    -0.24500
C2703       C  0.90357068  0.33904875  0.04664607     0.40100
C2704       C  0.89615169  0.35727735  0.04204972    -0.27000
O2705       O  0.94338117  0.37625176  0.00272342    -0.58900
H2706       H  0.95433695  0.34175876  0.01494254     0.15700
O2707       O  0.88979554  0.32703990  0.06050174    -0.60300
H2708       H  0.88013126  0.36156953  0.05035607     0.14200
H2709       H  0.93222249  0.43970828  0.04220593     0.46000
H2710       H  0.95572268  0.38002108  0.01501326     0.41400
H2711       H  0.88322233  0.31883322  0.04641229     0.44900
H2712       H  0.87340462  0.38073555  0.98868802     0.36300
C2713       C  0.78699896  0.52257594  0.23838819    -0.27900
C2714       C  0.77930238  0.50625854  0.25105670     0.01700
C2715       C  0.78292053  0.48888769  0.23864910     0.29800
C2716       C  0.79371469  0.48801055  0.21352229    -0.19700
C2717       C  0.80145409  0.50431490  0.20069674    -0.29100
C2718       C  0.79804721  0.52171982  0.21337249     0.43800
C2719       C  0.76837091  0.50743111  0.27781081     0.05000
O2720       O  0.77624915  0.47269005  0.25111842    -0.57600
H2721       H  0.79629389  0.47449587  0.20418336     0.17900
O2722       O  0.80507332  0.53797333  0.20133958    -0.64300
H2723       H  0.78432142  0.53601723  0.24790659     0.16400
C2724       C  0.78055186  0.51357418  0.30043369     0.28600
C2725       C  0.77023680  0.51446119  0.32580391    -0.25200
C2726       C  0.74762169  0.50943831  0.32907964    -0.24500
C2727       C  0.73532103  0.50344120  0.30624978     0.40100
C2728       C  0.74580690  0.50233268  0.28083369    -0.27000
O2729       O  0.80281634  0.51805627  0.29808374    -0.58900
H2730       H  0.78011809  0.51890584  0.34306952     0.15700
O2731       O  0.71306585  0.49890214  0.30841499    -0.60300
H2732       H  0.73628067  0.49769967  0.26337952     0.14200
H2733       H  0.79247763  0.54194362  0.18951231     0.46000
H2734       H  0.80317535  0.53184527  0.29642234     0.41400
H2735       H  0.70490566  0.51094488  0.30710074     0.44900
H2736       H  0.78876716  0.46927327  0.26343031     0.36300
C2737       C  0.75250941  0.52024231  0.95651824    -0.27900
C2738       C  0.73939847  0.50419619  0.95324432     0.01700
C2739       C  0.74619977  0.48731309  0.96534472     0.29800
C2740       C  0.76518119  0.48696997  0.98201409    -0.19700
C2741       C  0.77719484  0.50341290  0.98706753    -0.29100
C2742       C  0.77119409  0.51998465  0.97354785     0.43800
C2743       C  0.71794207  0.50574395  0.93864236     0.05000
O2744       O  0.73439753  0.47118005  0.96090184    -0.57600
H2745       H  0.76980515  0.47407074  0.99210061     0.17900
O2746       O  0.78350444  0.53596431  0.97690842    -0.64300
H2747       H  0.74762993  0.53322957  0.94685582     0.16400
C2748       C  0.69750544  0.50209144  0.95196769     0.28600
C2749       C  0.67721258  0.50478003  0.93830501    -0.25200
C2750       C  0.67703323  0.51177497  0.91172071    -0.24500
C2751       C  0.69755188  0.51540616  0.89841982     0.40100
C2752       C  0.71777607  0.51241898  0.91192607    -0.27000
O2753       O  0.69719729  0.49645765  0.97859680    -0.58900
H2754       H  0.66159985  0.50181082  0.94868696     0.15700
O2755       O  0.69807355  0.52154955  0.87202173    -0.60300
H2756       H  0.73340623  0.51535778  0.90154876     0.14200
H2757       H  0.77500958  0.54353995  0.99025161     0.46000
H2758       H  0.69611687  0.50813603  0.98929592     0.41400
H2759       H  0.69696268  0.51011967  0.86078515     0.44900
H2760       H  0.72712701  0.46813874  0.97847668     0.36300
C2761       C  0.87786133  0.49082208  0.91447439    -0.27900
C2762       C  0.89235432  0.50490642  0.90570603     0.01700
C2763       C  0.89970199  0.51848414  0.92415422     0.29800
C2764       C  0.89283025  0.51763202  0.95129393    -0.19700
C2765       C  0.87845536  0.50334439  0.96044667    -0.29100
C2766       C  0.87067719  0.49004369  0.94145531     0.43800
C2767       C  0.90014430  0.50490192  0.87733712     0.05000
O2768       O  0.91369144  0.53255670  0.91586487    -0.57600
H2769       H  0.89890617  0.52818222  0.96517030     0.17900
O2770       O  0.85634892  0.47600806  0.94896132    -0.64300
H2771       H  0.87207063  0.48036533  0.90025714     0.16400
C2772       C  0.91563789  0.49148648  0.86846626     0.28600
C2773       C  0.92286156  0.49151128  0.84147065    -0.25200
C2774       C  0.91442573  0.50459326  0.82264204    -0.24500
C2775       C  0.89817750  0.51765596  0.83159900     0.40100
C2776       C  0.89147484  0.51789113  0.85885758    -0.27000
O2777       O  0.92421352  0.47856544  0.88626294    -0.58900
H2778       H  0.93515577  0.48119770  0.83537038     0.15700
O2779       O  0.88878816  0.53035270  0.81408840    -0.60300
H2780       H  0.87920619  0.52807068  0.86552980     0.14200
H2781       H  0.84110392  0.48095430  0.94528498     0.46000
H2782       H  0.91467582  0.46735080  0.88405227     0.41400
H2783       H  0.87531112  0.52407202  0.80668184     0.44900
H2784       H  0.92906775  0.52782275  0.91926818     0.36300
C2785       C  0.92210979  0.89624234  0.26755419    -0.27900
C2786       C  0.90271653  0.88961467  0.25458367     0.01700
C2787       C  0.89094863  0.90154896  0.23692199     0.29800
C2788       C  0.89894486  0.91946946  0.23166730    -0.19700
C2789       C  0.91894904  0.92596064  0.24350901    -0.29100
C2790       C  0.93022410  0.91429746  0.26222735     0.43800
C2791       C  0.89616446  0.86968364  0.25644247     0.05000
O2792       O  0.87213985  0.89549675  0.22356951    -0.57600
H2793       H  0.88967305  0.92810775  0.21748367     0.17900
O2794       O  0.94949309  0.92010414  0.27477767    -0.64300
H2795       H  0.93136279  0.88717623  0.28117311     0.16400
C2796       C  0.91051038  0.85582480  0.24607652     0.28600
C2797       C  0.90247270  0.83774827  0.24187163    -0.25200
C2798       C  0.88010107  0.83307619  0.24780657    -0.24500
C2799       C  0.86615238  0.84661981  0.25986320     0.40100
C2800       C  0.87424561  0.86477326  0.26413185    -0.27000
O2801       O  0.93199301  0.86009750  0.23831552    -0.58900
H2802       H  0.91357119  0.82750843  0.23282112     0.15700
O2803       O  0.84422377  0.84265933  0.26586493    -0.60300
H2804       H  0.86299231  0.87533410  0.27203516     0.14200
H2805       H  0.96189836  0.91523383  0.26339128     0.46000
H2806       H  0.93080041  0.86415991  0.21910062     0.41400
H2807       H  0.83559069  0.84662396  0.24962732     0.44900
H2808       H  0.87777259  0.88906701  0.20709545     0.36300
C2809       C  0.95338084  0.77176966  0.09657434    -0.27900
C2810       C  0.96256561  0.75445893  0.08966607     0.01700
C2811       C  0.95161697  0.73797400  0.09753239     0.29800
C2812       C  0.93164495  0.73897060  0.11241948    -0.19700
C2813       C  0.92245071  0.75634987  0.11965928    -0.29100
C2814       C  0.93352624  0.77284938  0.11142804     0.43800
C2815       C  0.98306166  0.75398960  0.07308823     0.05000
O2816       O  0.96032724  0.72088067  0.09077639    -0.57600
H2817       H  0.92358141  0.72613579  0.11870690     0.17900
O2818       O  0.92518066  0.79014617  0.11782013    -0.64300
H2819       H  0.96167517  0.78452672  0.09035603     0.16400
C2820       C  0.98227492  0.75976344  0.04587022     0.28600
C2821       C  0.00186204  0.76021016  0.03048343    -0.25200
C2822       C  0.02255544  0.75510853  0.04191934    -0.24500
C2823       C  0.02337939  0.74935421  0.06932129     0.40100
C2824       C  0.00361381  0.74884713  0.08475396    -0.27000
O2825       O  0.96229909  0.76466476  0.03401933    -0.58900
H2826       H  0.00078874  0.76442563  0.00937197     0.15700
O2827       O  0.04345075  0.74516858  0.08150612    -0.60300
H2828       H  0.00435841  0.74477291  0.10594110     0.14200
H2829       H  0.91517176  0.79353057  0.10250500     0.46000
H2830       H  0.96177814  0.77848591  0.03484321     0.41400
H2831       H  0.04373182  0.73137628  0.08313497     0.44900
H2832       H  0.95319812  0.71762282  0.07322819     0.36300
C2833       C  0.88729077  0.77380018  0.37032525    -0.27900
C2834       C  0.89640660  0.75758207  0.38196370     0.01700
C2835       C  0.89765046  0.74127023  0.36612490     0.29800
C2836       C  0.89031244  0.74145616  0.33899775    -0.19700
C2837       C  0.88122840  0.75771680  0.32713740    -0.29100
C2838       C  0.87949561  0.77392714  0.34338143     0.43800
C2839       C  0.90504639  0.75798456  0.41039233     0.05000
O2840       O  0.90614311  0.72506865  0.37689983    -0.57600
H2841       H  0.89160040  0.72873545  0.32725024     0.17900
O2842       O  0.87099239  0.79021054  0.33290024    -0.64300
H2843       H  0.88616526  0.78645593  0.38225288     0.16400
C2844       C  0.92379016  0.76888337  0.41725305     0.28600
C2845       C  0.93169009  0.76929756  0.44411795    -0.25200
C2846       C  0.92101229  0.75910259  0.46492010    -0.24500
C2847       C  0.90206529  0.74819019  0.45786856     0.40100
C2848       C  0.89443950  0.74759664  0.43085587    -0.27000
O2849       O  0.93497438  0.77873605  0.39758010    -0.58900
H2850       H  0.94633142  0.77765768  0.44857330     0.15700
O2851       O  0.89079446  0.73797526  0.47707813    -0.60300
H2852       H  0.87994752  0.73917012  0.42592247     0.14200
H2853       H  0.85506486  0.79048207  0.33868067     0.46000
H2854       H  0.92930471  0.79170725  0.39910840     0.41400
H2855       H  0.87928358  0.74657560  0.48449238     0.44900
H2856       H  0.92265496  0.72663342  0.37660369     0.36300
C2857       C  0.79846057  0.64561596  0.16847136    -0.27900
C2858       C  0.81052651  0.63826892  0.14650208     0.01700
C2859       C  0.82507190  0.64998965  0.13189638     0.29800
C2860       C  0.82795331  0.66858928  0.13978034    -0.19700
C2861       C  0.81651065  0.67598671  0.16238166    -0.29100
C2862       C  0.80112350  0.66431603  0.17629358     0.43800
C2863       C  0.80936277  0.61807195  0.14005632     0.05000
O2864       O  0.83714896  0.64320620  0.11034489    -0.57600
H2865       H  0.83969874  0.67707972  0.12844746     0.17900
O2866       O  0.78904874  0.67076401  0.19805479    -0.64300
H2867       H  0.78715062  0.63672726  0.17983753     0.16400
C2868       C  0.81865959  0.60483632  0.15789917     0.28600
C2869       C  0.82043489  0.58612332  0.15002348    -0.25200
C2870       C  0.81282612  0.58010665  0.12438360    -0.24500
C2871       C  0.80229241  0.59330464  0.10717682     0.40100
C2872       C  0.80087270  0.61211348  0.11497198    -0.27000
O2873       O  0.82753139  0.61030769  0.18230935    -0.58900
H2874       H  0.82845849  0.57641079  0.16384241     0.15700
O2875       O  0.79453279  0.58829662  0.08202977    -0.60300
H2876       H  0.79365788  0.62219863  0.10105717     0.14200
H2877       H  0.77511864  0.67604657  0.19014921     0.46000
H2878       H  0.81571060  0.60763054  0.19592433     0.41400
H2879       H  0.77835996  0.58568098  0.08466810     0.44900
H2880       H  0.85087462  0.63770082  0.11844868     0.36300
C2881       C  0.63139216  0.61521496  0.75745102    -0.27900
C2882       C  0.65287310  0.62072565  0.76605299     0.01700
C2883       C  0.66677006  0.60742163  0.77883619     0.29800
C2884       C  0.65855089  0.58955559  0.78458619    -0.19700
C2885       C  0.63649484  0.58445860  0.77786430    -0.29100
C2886       C  0.62314800  0.59729509  0.76326955     0.43800
C2887       C  0.65887336  0.64091477  0.76643205     0.05000
O2888       O  0.68750629  0.61231641  0.78848558    -0.57600
H2889       H  0.66921702  0.57992889  0.79564589     0.17900
O2890       O  0.60153819  0.59299605  0.75620732    -0.64300
H2891       H  0.62044719  0.62523359  0.74759648     0.16400
C2892       C  0.67984597  0.64759476  0.75741591     0.28600
C2893       C  0.68640391  0.66598643  0.76340320    -0.25200
C2894       C  0.67233363  0.67784324  0.77845550    -0.24500
C2895       C  0.65045131  0.67170328  0.78478584     0.40100
C2896       C  0.64401566  0.65341577  0.77898927    -0.27000
O2897       O  0.69392157  0.63624366  0.74277022    -0.58900
H2898       H  0.70303049  0.67056478  0.75760301     0.15700
O2899       O  0.63549854  0.68315144  0.79786226    -0.60300
H2900       H  0.62769194  0.64869426  0.78575055     0.14200
H2901       H  0.59214103  0.59769991  0.77135344     0.46000
H2902       H  0.70812527  0.63557857  0.75320705     0.41400
H2903       H  0.62801330  0.69035508  0.78321677     0.44900
H2904       H  0.69839814  0.60519154  0.77732140     0.36300
C2905       C  0.78511052  0.74616238  0.98234975    -0.27900
C2906       C  0.77262184  0.75093499  0.00537795     0.01700
C2907       C  0.74982500  0.75579012  0.00238366     0.29800
C2908       C  0.73988086  0.75586607  0.97658069    -0.19700
C2909       C  0.75232046  0.75081832  0.95353185    -0.29100
C2910       C  0.77523091  0.74610114  0.95665094     0.43800
C2911       C  0.78381029  0.75148779  0.03224182     0.05000
O2912       O  0.73704845  0.76021094  0.02462283    -0.57600
H2913       H  0.72228809  0.75941814  0.97470397     0.17900
O2914       O  0.78827448  0.74154534  0.93467760    -0.64300
H2915       H  0.80273643  0.74271656  0.98425519     0.16400
C2916       C  0.79527318  0.73584179  0.04280027     0.28600
C2917       C  0.80588998  0.73690653  0.06818626    -0.25200
C2918       C  0.80504229  0.75342029  0.08353995    -0.24500
C2919       C  0.79395686  0.76917096  0.07246381     0.40100
C2920       C  0.78346623  0.76806899  0.04717758    -0.27000
O2921       O  0.79582173  0.71934769  0.02872440    -0.58900
H2922       H  0.81421020  0.72462673  0.07620736     0.15700
O2923       O  0.79321094  0.78580925  0.08614916    -0.60300
H2924       H  0.77513267  0.78032179  0.03906889     0.14200
H2925       H  0.79366575  0.75362831  0.92734036     0.46000
H2926       H  0.78112364  0.71337511  0.03229294     0.41400
H2927       H  0.80729346  0.79231305  0.08119946     0.44900
H2928       H  0.73093919  0.74814694  0.03115516     0.36300
C2929       C  0.81194445  0.74632961  0.71189470    -0.27900
C2930       C  0.82968882  0.75748169  0.72127927     0.01700
C2931       C  0.82717183  0.76734575  0.74569545     0.29800
C2932       C  0.80729248  0.76599270  0.76034147    -0.19700
C2933       C  0.78938838  0.75486604  0.75116983    -0.29100
C2934       C  0.79190179  0.74491050  0.72668799     0.43800
C2935       C  0.85073380  0.75899881  0.70551006     0.05000
O2936       O  0.84410806  0.77836275  0.75550533    -0.57600
H2937       H  0.80608662  0.77367072  0.77921940     0.17900
O2938       O  0.77470761  0.73435715  0.71651272    -0.64300
H2939       H  0.81352384  0.73890909  0.69284744     0.16400
C2940       C  0.86320301  0.74303714  0.69854977     0.28600
C2941       C  0.88313253  0.74485613  0.68376499    -0.25200
C2942       C  0.89083691  0.76250393  0.67545539    -0.24500
C2943       C  0.87862709  0.77852458  0.68324229     0.40100
C2944       C  0.85870536  0.77666407  0.69792925    -0.27000
O2945       O  0.85633592  0.72565661  0.70675050    -0.58900
H2946       H  0.89222391  0.73234193  0.67816376     0.15700
O2947       O  0.88588716  0.79608273  0.67649468    -0.60300
H2948       H  0.84933321  0.78909561  0.70327172     0.14200
H2949       H  0.77765255  0.72149590  0.72308986     0.46000
H2950       H  0.84972296  0.71982385  0.69036522     0.41400
H2951       H  0.89606938  0.79978381  0.69145550     0.44900
H2952       H  0.85292995  0.77014741  0.76771969     0.36300
C2953       C  0.66004174  0.15149205  0.00369640    -0.27900
C2954       C  0.64320474  0.13813989  0.00792503     0.01700
C2955       C  0.62090531  0.14425181  0.01151124     0.29800
C2956       C  0.61553613  0.16327175  0.00852410    -0.19700
C2957       C  0.63210728  0.17630517  0.00143309    -0.29100
C2958       C  0.65465569  0.17040855  0.00047790     0.43800
C2959       C  0.64896523  0.11798260  0.00519744     0.05000
O2960       O  0.60430478  0.13167357  0.01759810    -0.57600
H2961       H  0.59815827  0.16759192  0.00993221     0.17900
O2962       O  0.67148008  0.18292183  0.99524174    -0.64300
H2963       H  0.67732021  0.14710449  0.00129596     0.16400
C2964       C  0.63938763  0.10726573  0.98430406     0.28600
C2965       C  0.64751104  0.08931112  0.97886293    -0.25200
C2966       C  0.66534667  0.08149317  0.99386351    -0.24500
C2967       C  0.67423816  0.09196684  0.01566121     0.40100
C2968       C  0.66609728  0.11003188  0.02105806    -0.27000
O2969       O  0.62345001  0.11485866  0.96746093    -0.58900
H2970       H  0.64020793  0.08178810  0.96199739     0.15700
O2971       O  0.69127877  0.08499983  0.03138468    -0.60300
H2972       H  0.67369228  0.11811273  0.03717561     0.14200
H2973       H  0.67635579  0.18741596  0.01333835     0.46000
H2974       H  0.60959741  0.10757992  0.97084515     0.41400
H2975       H  0.70524607  0.08979516  0.02299099     0.44900
H2976       H  0.59370705  0.13210007  0.00208782     0.36300
C2977       C  0.78769733  0.01308505  0.80272506    -0.27900
C2978       C  0.77734079  0.00367683  0.78117666     0.01700
C2979       C  0.75681847  0.99448774  0.78602522     0.29800
C2980       C  0.74688540  0.99510213  0.81186515    -0.19700
C2981       C  0.75691262  0.00501918  0.83327312    -0.29100
C2982       C  0.77775355  0.01384067  0.82845579     0.43800
C2983       C  0.78819023  0.00353048  0.75387569     0.05000
O2984       O  0.74612608  0.98511706  0.76552613    -0.57600
H2985       H  0.73099334  0.98811610  0.81491898     0.17900
O2986       O  0.78870346  0.02326428  0.84869640    -0.64300
H2987       H  0.80373965  0.01982241  0.79965444     0.16400
C2988       C  0.79536384  0.02021093  0.74129458     0.28600
C2989       C  0.80550945  0.01972971  0.71554875    -0.25200
C2990       C  0.80854160  0.00277635  0.70180669    -0.24500
C2991       C  0.80158614  0.98607670  0.71456927     0.40100
C2992       C  0.79171202  0.98654960  0.74038234    -0.27000
O2993       O  0.79138289  0.03713834  0.75336449    -0.58900
H2994       H  0.81034033  0.03273235  0.70594598     0.15700
O2995       O  0.80493442  0.96912295  0.70230146    -0.60300
H2996       H  0.78684070  0.97354091  0.74993367     0.14200
H2997       H  0.79717182  0.01356917  0.85881652     0.46000
H2998       H  0.80634165  0.04197397  0.75856165     0.41400
H2999       H  0.79024890  0.96578882  0.69423637     0.44900
H3000       H  0.73419481  0.99371192  0.75910902     0.36300
C3001       C  0.84594136  0.99146310  0.09678108    -0.27900
C3002       C  0.84126207  0.00853853  0.08428688     0.01700
C3003       C  0.85677381  0.02319412  0.08579843     0.29800
C3004       C  0.87669929  0.02074326  0.10031827    -0.19700
C3005       C  0.88141717  0.00367760  0.11328821    -0.29100
C3006       C  0.86584094  0.98886335  0.11105331     0.43800
C3007       C  0.82065925  0.01031266  0.06829744     0.05000
O3008       O  0.85211949  0.04014723  0.07407371    -0.57600
H3009       H  0.88815936  0.03238830  0.10194934     0.17900
O3010       O  0.86960757  0.97183964  0.12303595    -0.64300
H3011       H  0.83415930  0.98001884  0.09521293     0.16400
C3012       C  0.82191673  0.01104710  0.03986425     0.28600
C3013       C  0.80234005  0.01050163  0.02458457    -0.25200
C3014       C  0.78138889  0.00929102  0.03734814    -0.24500
C3015       C  0.77999012  0.00901847  0.06582457     0.40100
C3016       C  0.79969615  0.00941288  0.08121428    -0.27000
O3017       O  0.84224057  0.01165483  0.02684662    -0.58900
H3018       H  0.80351410  0.01069025  0.00260943     0.15700
O3019       O  0.75964380  0.00764523  0.07864986    -0.60300
H3020       H  0.79870454  0.00860286  0.10316013     0.14200
H3021       H  0.87923069  0.96490966  0.11007837     0.46000
H3022       H  0.84685343  0.99843547  0.02473447     0.41400
H3023       H  0.75661171  0.99407020  0.07997578     0.44900
H3024       H  0.86171234  0.04076447  0.05764790     0.36300
C3025       C  0.74874723  0.89456179  0.92275613    -0.27900
C3026       C  0.73937810  0.88804214  0.89840184     0.01700
C3027       C  0.72838412  0.90080340  0.88116862     0.29800
C3028       C  0.72682522  0.91964814  0.88839336    -0.19700
C3029       C  0.73587849  0.92627350  0.91296443    -0.29100
C3030       C  0.74715291  0.91344377  0.93007882     0.43800
C3031       C  0.73959486  0.86774733  0.89201881     0.05000
O3032       O  0.71758980  0.89471244  0.85822869    -0.57600
H3033       H  0.71788058  0.92898334  0.87486502     0.17900
O3034       O  0.75580452  0.91892395  0.95458778    -0.64300
H3035       H  0.75706454  0.88488842  0.93638415     0.16400
C3036       C  0.74738711  0.86107701  0.86683676     0.28600
C3037       C  0.74488977  0.84220857  0.86009124    -0.25200
C3038       C  0.73494088  0.82949795  0.87831168    -0.24500
C3039       C  0.72826339  0.83606749  0.90413294     0.40100
C3040       C  0.73071482  0.85498507  0.91078865    -0.27000
O3041       O  0.75722227  0.87294982  0.84850355    -0.58900
H3042       H  0.75042487  0.83763063  0.84023109     0.15700
O3043       O  0.71954764  0.82413181  0.92318423    -0.60300
H3044       H  0.72494138  0.85981265  0.93042808     0.14200
H3045       H  0.77142474  0.92277332  0.95062922     0.46000
H3046       H  0.77357736  0.87157173  0.85149863     0.41400
H3047       H  0.70319193  0.82662850  0.92321970     0.44900
H3048       H  0.72596114  0.90019368  0.84275373     0.36300
C3049       C  0.63792320  0.60790003  0.49783980    -0.27900
C3050       C  0.65144689  0.62014400  0.51261091     0.01700
C3051       C  0.67186168  0.61358113  0.52344290     0.29800
C3052       C  0.67929869  0.59540650  0.51746842    -0.19700
C3053       C  0.66664934  0.58367779  0.50052050    -0.29100
C3054       C  0.64522010  0.58985175  0.49186769     0.43800
C3055       C  0.64542550  0.64023515  0.51263257     0.05000
O3056       O  0.68465840  0.62494317  0.53960213    -0.57600
H3057       H  0.69551453  0.59090649  0.52493058     0.17900
O3058       O  0.63162809  0.57874297  0.47633437    -0.64300
H3059       H  0.62212696  0.61271394  0.48947659     0.16400
C3060       C  0.65925571  0.65306776  0.49901534     0.28600
C3061       C  0.65159409  0.67117220  0.49399615    -0.25200
C3062       C  0.63001306  0.67691490  0.50202213    -0.24500
C3063       C  0.61647421  0.66429933  0.51665039     0.40100
C3064       C  0.62423627  0.64610501  0.52186151    -0.27000
O3065       O  0.67929644  0.64745839  0.48797535    -0.58900
H3066       H  0.66233906  0.68052405  0.48260865     0.15700
O3067       O  0.59519745  0.66916246  0.52448576    -0.60300
H3068       H  0.61325719  0.63625579  0.53194369     0.14200
H3069       H  0.62161326  0.57235605  0.48945149     0.46000
H3070       H  0.69100660  0.65421957  0.49828515     0.41400
H3071       H  0.58548375  0.66591051  0.50885659     0.44900
H3072       H  0.69880545  0.62704687  0.52947754     0.36300
C3073       C  0.71296427  0.74124467  0.36557369    -0.27900
C3074       C  0.71435053  0.75269436  0.34266498     0.01700
C3075       C  0.69541007  0.76271646  0.33385919     0.29800
C3076       C  0.67526123  0.76117511  0.34822314    -0.19700
C3077       C  0.67378223  0.74953819  0.37115546    -0.29100
C3078       C  0.69297357  0.73955615  0.37977482     0.43800
C3079       C  0.73525490  0.75257368  0.32703476     0.05000
O3080       O  0.69613593  0.77312930  0.31045693    -0.57600
H3081       H  0.66074063  0.76890678  0.34121737     0.17900
O3082       O  0.69257467  0.72818697  0.40219536    -0.64300
H3083       H  0.72750171  0.73342786  0.37237517     0.16400
C3084       C  0.74756556  0.76895638  0.32239348     0.28600
C3085       C  0.76724027  0.76815538  0.30710980    -0.25200
C3086       C  0.77472748  0.75112649  0.29622077    -0.24500
C3087       C  0.76270111  0.73463229  0.30183344     0.40100
C3088       C  0.74321366  0.73547542  0.31728489    -0.27000
O3089       O  0.74035027  0.78579440  0.33232265    -0.58900
H3090       H  0.77614030  0.78100442  0.30291293     0.15700
O3091       O  0.76986812  0.71761429  0.29244112    -0.60300
H3092       H  0.73397085  0.72274026  0.32119519     0.14200
H3093       H  0.69651298  0.73638412  0.41767032     0.46000
H3094       H  0.74694968  0.78671049  0.35074631     0.41400
H3095       H  0.75988471  0.71464365  0.27693410     0.44900
H3096       H  0.69556021  0.78632404  0.31644450     0.36300
C3097       C  0.68195121  0.74285752  0.66299167    -0.27900
C3098       C  0.66130936  0.75139099  0.65713569     0.01700
C3099       C  0.64909755  0.75979866  0.67828897     0.29800
C3100       C  0.65737315  0.75939882  0.70478338    -0.19700
C3101       C  0.67807379  0.75093321  0.71081857    -0.29100
C3102       C  0.69045250  0.74267462  0.68949059     0.43800
C3103       C  0.65241863  0.75124984  0.62905271     0.05000
O3104       O  0.62904270  0.76854030  0.67326389    -0.57600
H3105       H  0.64741768  0.76577785  0.72066866     0.17900
O3106       O  0.71078963  0.73431242  0.69420363    -0.64300
H3107       H  0.69144268  0.73612728  0.64700135     0.16400
C3108       C  0.66538555  0.75770982  0.60710651     0.28600
C3109       C  0.65639293  0.75779756  0.58090238    -0.25200
C3110       C  0.63443359  0.75151571  0.57599341    -0.24500
C3111       C  0.62144598  0.74511326  0.59807071     0.40100
C3112       C  0.63056287  0.74483478  0.62422044    -0.27000
O3113       O  0.68645849  0.76479366  0.61125444    -0.58900
H3114       H  0.66672063  0.76288032  0.56437313     0.15700
O3115       O  0.59971588  0.73940545  0.59452512    -0.60300
H3116       H  0.62042662  0.73968954  0.64088192     0.14200
H3117       H  0.72210783  0.74410994  0.69047896     0.46000
H3118       H  0.69691845  0.75508916  0.60446499     0.41400
H3119       H  0.59059444  0.75097980  0.59543057     0.44900
H3120       H  0.63288475  0.78184405  0.67028217     0.36300
C3121       C  0.66460758  0.10970747  0.27531534    -0.27900
C3122       C  0.64995286  0.12305150  0.26439220     0.01700
C3123       C  0.62845259  0.11726704  0.25583258     0.29800
C3124       C  0.62110057  0.09892353  0.26125662    -0.19700
C3125       C  0.63504435  0.08624545  0.27508335    -0.29100
C3126       C  0.65743856  0.09148909  0.28041957     0.43800
C3127       C  0.65642492  0.14313293  0.26608971     0.05000
O3128       O  0.61461794  0.12951332  0.24235330    -0.57600
H3129       H  0.60408848  0.09502516  0.25612097     0.17900
O3130       O  0.67221350  0.07916484  0.29207720    -0.64300
H3131       H  0.68132594  0.11371210  0.28158370     0.16400
C3132       C  0.64322245  0.15564497  0.28127644     0.28600
C3133       C  0.65154909  0.17327670  0.28802318    -0.25200
C3134       C  0.67307529  0.17904547  0.27991369    -0.24500
C3135       C  0.68584735  0.16694410  0.26338921     0.40100
C3136       C  0.67754122  0.14914195  0.25673944    -0.27000
O3137       O  0.62305933  0.15010913  0.29198613    -0.58900
H3138       H  0.64126950  0.18224076  0.30063115     0.15700
O3139       O  0.70683943  0.17193990  0.25470407    -0.60300
H3140       H  0.68803714  0.13968167  0.24520426     0.14200
H3141       H  0.67955587  0.07274204  0.27662104     0.46000
H3142       H  0.61156889  0.15778211  0.28258439     0.41400
H3143       H  0.71728985  0.16668296  0.26839573     0.44900
H3144       H  0.60075282  0.13042086  0.25339602     0.36300
C3145       C  0.74684930  0.99877782  0.46058316    -0.27900
C3146       C  0.73774966  0.01661826  0.45682184     0.01700
C3147       C  0.74865215  0.03230833  0.46739068     0.29800
C3148       C  0.76806342  0.02993577  0.48264188    -0.19700
C3149       C  0.77681495  0.01200650  0.48751901    -0.29100
C3150       C  0.76639316  0.99636965  0.47570051     0.43800
C3151       C  0.71632688  0.01859996  0.44276631     0.05000
O3152       O  0.73952993  0.04980805  0.46458888    -0.57600
H3153       H  0.77580936  0.04215013  0.49152742     0.17900
O3154       O  0.77408623  0.97862071  0.48044885    -0.64300
H3155       H  0.73843760  0.98666310  0.45231288     0.16400
C3156       C  0.71491395  0.02872865  0.41846401     0.28600
C3157       C  0.69450511  0.02996868  0.40500616    -0.25200
C3158       C  0.67536997  0.02096065  0.41533163    -0.24500
C3159       C  0.67673502  0.01121815  0.44014352     0.40100
C3160       C  0.69722939  0.01003377  0.45364415    -0.27000
O3161       O  0.73351405  0.03704252  0.40740950    -0.58900
H3162       H  0.69396356  0.03739353  0.38582406     0.15700
O3163       O  0.65832141  0.00262842  0.45115776    -0.60300
H3164       H  0.69828277  0.00235915  0.47259301     0.14200
H3165       H  0.78479461  0.97605648  0.46549950     0.46000
H3166       H  0.73882359  0.02833147  0.39315433     0.41400
H3167       H  0.65186572  0.01185750  0.46396113     0.44900
H3168       H  0.74943716  0.05644629  0.45160903     0.36300
C3169       C  0.63516748  0.00198704  0.10133202    -0.27900
C3170       C  0.64950366  0.00691136  0.12276399     0.01700
C3171       C  0.67165500  0.01230599  0.11680332     0.29800
C3172       C  0.67927749  0.01245579  0.08995402    -0.19700
C3173       C  0.66518032  0.00716125  0.06845890    -0.29100
C3174       C  0.64283672  0.00203141  0.07436651     0.43800
C3175       C  0.64152450  0.00625503  0.15135736     0.05000
O3176       O  0.68608843  0.01738525  0.13715179    -0.57600
H3177       H  0.69649367  0.01642776  0.08602598     0.17900
O3178       O  0.62834566  0.99701576  0.05404302    -0.64300
H3179       H  0.61806962  0.99782532  0.10557077     0.16400
C3180       C  0.62299875  0.01688594  0.15998766     0.28600
C3181       C  0.61691195  0.01709638  0.18749454    -0.25200
C3182       C  0.62894354  0.00665938  0.20697392    -0.24500
C3183       C  0.64696475  0.99539179  0.19792806     0.40100
C3184       C  0.65317043  0.99541924  0.17047992    -0.27000
O3185       O  0.61097621  0.02742804  0.14180997    -0.58900
H3186       H  0.60279843  0.02565854  0.19356446     0.15700
O3187       O  0.65913492  0.98467698  0.21572727    -0.60300
H3188       H  0.66729628  0.98697243  0.16408311     0.14200
H3189       H  0.62209220  0.00892600  0.04706085     0.46000
H3190       H  0.61951465  0.03920679  0.13980438     0.41400
H3191       H  0.65187244  0.97224021  0.21544639     0.44900
H3192       H  0.68285163  0.03074616  0.14061605     0.36300
C3193       C  0.58677234  0.90771862  0.40947558    -0.27900
C3194       C  0.57949764  0.89430238  0.39078894     0.01700
C3195       C  0.57292848  0.90015163  0.36465123     0.29800
C3196       C  0.57392735  0.91911788  0.35748366    -0.19700
C3197       C  0.58171545  0.93261773  0.37594887    -0.29100
C3198       C  0.58815583  0.92664770  0.40224451     0.43800
C3199       C  0.57950317  0.87421722  0.39863540     0.05000
O3200       O  0.56479513  0.88748429  0.34628881    -0.57600
H3201       H  0.56881313  0.92320116  0.33721219     0.17900
O3202       O  0.59521768  0.93921972  0.42136641    -0.64300
H3203       H  0.59181180  0.90344323  0.42969818     0.16400
C3204       C  0.59320914  0.86128629  0.38496489     0.28600
C3205       C  0.59345661  0.84249573  0.39291627    -0.25200
C3206       C  0.58053939  0.83611973  0.41504957    -0.24500
C3207       C  0.56714886  0.84929548  0.42912805     0.40100
C3208       C  0.56664751  0.86805947  0.42077434    -0.27000
O3209       O  0.60694167  0.86696519  0.36419875    -0.58900
H3210       H  0.60419768  0.83296222  0.38187231     0.15700
O3211       O  0.55446818  0.84411368  0.45111032    -0.60300
H3212       H  0.55625019  0.87789847  0.43176157     0.14200
H3213       H  0.61156996  0.93704415  0.42326422     0.46000
H3214       H  0.62034205  0.87229351  0.37321408     0.41400
H3215       H  0.56444459  0.84571057  0.46704822     0.44900
H3216       H  0.57681068  0.88597113  0.33254281     0.36300
C3217       C  0.52252774  0.01205720  0.47956972    -0.27900
C3218       C  0.53537714  0.01048258  0.50333532     0.01700
C3219       C  0.55898469  0.00974530  0.50092379     0.29800
C3220       C  0.56923586  0.01056890  0.47519085    -0.19700
C3221       C  0.55630699  0.01249550  0.45150359    -0.29100
C3222       C  0.53272667  0.01305539  0.45395837     0.43800
C3223       C  0.52392740  0.00893599  0.53030503     0.05000
O3224       O  0.57220639  0.00837186  0.52362419    -0.57600
H3225       H  0.58735471  0.01008645  0.47381590     0.17900
O3226       O  0.51938911  0.01416171  0.43132293    -0.64300
H3227       H  0.50440167  0.01211838  0.48076711     0.16400
C3228       C  0.50722430  0.02173575  0.53848147     0.28600
C3229       C  0.49678943  0.01989590  0.56398497    -0.25200
C3230       C  0.50245403  0.00524346  0.58181577    -0.24500
C3231       C  0.51888506  0.99219717  0.57319586     0.40100
C3232       C  0.52931613  0.99412771  0.54780318    -0.27000
O3233       O  0.50162743  0.03656217  0.52214949    -0.58900
H3234       H  0.48437657  0.03016847  0.56988511     0.15700
O3235       O  0.52457753  0.97715301  0.58904261    -0.60300
H3236       H  0.54158747  0.98380547  0.54163404     0.14200
H3237       H  0.51518487  0.00109124  0.42716397     0.46000
H3238       H  0.48648089  0.03366363  0.51502063     0.41400
H3239       H  0.53870373  0.98076594  0.59823193     0.44900
H3240       H  0.57711453  0.02130573  0.52751356     0.36300
C3241       C  0.60852723  0.02123920  0.83155266    -0.27900
C3242       C  0.59970384  0.00357479  0.82566062     0.01700
C3243       C  0.61154936  0.98746373  0.83342200     0.29800
C3244       C  0.63129407  0.98922033  0.84847525    -0.19700
C3245       C  0.63942197  0.00694131  0.85564781    -0.29100
C3246       C  0.62830996  0.02301118  0.84623750     0.43800
C3247       C  0.57855504  0.00257674  0.81041707     0.05000
O3248       O  0.60439218  0.97010785  0.82552848    -0.57600
H3249       H  0.63983504  0.97668989  0.85524233     0.17900
O3250       O  0.63689644  0.04047552  0.85085071    -0.64300
H3251       H  0.59986759  0.03377064  0.82499393     0.16400
C3252       C  0.55971374  0.99287228  0.82032284     0.28600
C3253       C  0.53934891  0.99386495  0.80623105    -0.25200
C3254       C  0.53744502  0.00487418  0.78269569    -0.24500
C3255       C  0.55661556  0.01426963  0.77275470     0.40100
C3256       C  0.57680509  0.01300086  0.78654793    -0.27000
O3257       O  0.56083557  0.98289240  0.84407783    -0.58900
H3258       H  0.52495366  0.98638828  0.81405815     0.15700
O3259       O  0.55599231  0.02472949  0.74941527    -0.60300
H3260       H  0.59122475  0.02042993  0.77864447     0.14200
H3261       H  0.62751223  0.04588213  0.86549248     0.46000
H3262       H  0.55612362  0.99173488  0.85846362     0.41400
H3263       H  0.56124614  0.01623499  0.73485666     0.44900
H3264       H  0.59985239  0.96363015  0.84246859     0.36300
C3265       C  0.31086166  0.98625408  0.56266563    -0.27900
C3266       C  0.31995514  0.00326151  0.57117701     0.01700
C3267       C  0.30894166  0.02003798  0.56447918     0.29800
C3268       C  0.28934414  0.01963234  0.54884019    -0.19700
C3269       C  0.28066550  0.00260130  0.53945957    -0.29100
C3270       C  0.29147832  0.98580599  0.54685662     0.43800
C3271       C  0.34083721  0.00313932  0.58725955     0.05000
O3272       O  0.31734082  0.03687939  0.57282203    -0.57600
H3273       H  0.28136528  0.03268743  0.54328710     0.17900
O3274       O  0.28305814  0.96883431  0.53906487    -0.64300
H3275       H  0.31909029  0.97323571  0.56788334     0.16400
C3276       C  0.34205410  0.99286316  0.61153720     0.28600
C3277       C  0.36203033  0.99219361  0.62608835    -0.25200
C3278       C  0.38123254  0.00173185  0.61698365    -0.24500
C3279       C  0.38004182  0.01197534  0.59248932     0.40100
C3280       C  0.35987484  0.01267897  0.57790388    -0.27000
O3281       O  0.32375072  0.98341561  0.62130471    -0.58900
H3282       H  0.36228389  0.98432427  0.64489520     0.15700
O3283       O  0.39839732  0.02121343  0.58249474    -0.60300
H3284       H  0.35919144  0.02041800  0.55899309     0.14200
H3285       H  0.29259660  0.96477443  0.52365066     0.46000
H3286       H  0.31409467  0.99307348  0.62974988     0.41400
H3287       H  0.40577186  0.01224041  0.57003570     0.44900
H3288       H  0.31222574  0.03830354  0.59187203     0.36300
C3289       C  0.54264053  0.23564488  0.79288710    -0.27900
C3290       C  0.53876100  0.25290996  0.78034576     0.01700
C3291       C  0.54610864  0.26937599  0.79310112     0.29800
C3292       C  0.55706523  0.26838222  0.81821935    -0.19700
C3293       C  0.56076673  0.25110615  0.83093486    -0.29100
C3294       C  0.55363952  0.23462840  0.81789236     0.43800
C3295       C  0.52752386  0.25345255  0.75360137     0.05000
O3296       O  0.54154133  0.28650205  0.78183434    -0.57600
H3297       H  0.56200221  0.28120596  0.82817034     0.17900
O3298       O  0.55725673  0.21744086  0.82942099    -0.64300
H3299       H  0.53726772  0.22288433  0.78310254     0.16400
C3300       C  0.53879770  0.26047750  0.73076872     0.28600
C3301       C  0.52819447  0.26060751  0.70549061    -0.25200
C3302       C  0.50620004  0.25382877  0.70233165    -0.24500
C3303       C  0.49505864  0.24643825  0.72525700     0.40100
C3304       C  0.50578597  0.24624660  0.75061992    -0.27000
O3305       O  0.56061588  0.26637396  0.73276614    -0.58900
H3306       H  0.53743090  0.26595554  0.68820813     0.15700
O3307       O  0.47375163  0.23943686  0.72323745    -0.60300
H3308       H  0.49705624  0.24059078  0.76808781     0.14200
H3309       H  0.57291784  0.21414163  0.82462922     0.46000
H3310       H  0.56017725  0.28002668  0.72947468     0.41400
H3311       H  0.46369219  0.25026208  0.72629827     0.44900
H3312       H  0.55632607  0.29194750  0.77716107     0.36300
C3313       C  0.55730691  0.26958527  0.46101448    -0.27900
C3314       C  0.56882843  0.25262504  0.45824971     0.01700
C3315       C  0.56019736  0.23639616  0.47028512     0.29800
C3316       C  0.54052786  0.23732953  0.48541639    -0.19700
C3317       C  0.52910562  0.25435600  0.48898396    -0.29100
C3318       C  0.53742058  0.27052854  0.47603089     0.43800
C3319       C  0.59003228  0.25187344  0.44305526     0.05000
O3320       O  0.57169329  0.21980740  0.46880189    -0.57600
H3321       H  0.53465145  0.22466349  0.49511253     0.17900
O3322       O  0.52700457  0.28747477  0.47896161    -0.64300
H3323       H  0.56386209  0.28213918  0.45165409     0.16400
C3324       C  0.59231753  0.23990551  0.42069686     0.28600
C3325       C  0.61281909  0.23851772  0.40737798    -0.25200
C3326       C  0.63131985  0.24923317  0.41566912    -0.24500
C3327       C  0.62891252  0.26136860  0.43806384     0.40100
C3328       C  0.60830965  0.26265224  0.45149674    -0.27000
O3329       O  0.57449804  0.22961987  0.41153313    -0.58900
H3330       H  0.61395630  0.22933681  0.38998145     0.15700
O3331       O  0.64644094  0.27208227  0.44696283    -0.60300
H3332       H  0.60667414  0.27187419  0.46880243     0.14200
H3333       H  0.51527613  0.28776054  0.46469504     0.46000
H3334       H  0.56644770  0.23793089  0.39868725     0.41400
H3335       H  0.65404256  0.26442803  0.46102160     0.44900
H3336       H  0.56228421  0.21149525  0.45747309     0.36300
C3337       C  0.50031398  0.11325724  0.66516373    -0.27900
C3338       C  0.49137400  0.11933653  0.64036081     0.01700
C3339       C  0.48104728  0.10635213  0.62306408     0.29800
C3340       C  0.47917130  0.08768483  0.63102106    -0.19700
C3341       C  0.48730912  0.08160287  0.65636909    -0.29100
C3342       C  0.49835315  0.09462207  0.67329784     0.43800
C3343       C  0.49093859  0.13948813  0.63384062     0.05000
O3344       O  0.47187702  0.11192009  0.59881627    -0.57600
H3345       H  0.47068796  0.07807789  0.61755786     0.17900
O3346       O  0.50609947  0.08966130  0.69853329    -0.64300
H3347       H  0.50828052  0.12315041  0.67866781     0.16400
C3348       C  0.47967877  0.15201474  0.65102913     0.28600
C3349       C  0.47771242  0.17078559  0.64375392    -0.25200
C3350       C  0.48691505  0.17756111  0.61933556    -0.24500
C3351       C  0.49870826  0.16496376  0.60237676     0.40100
C3352       C  0.50055198  0.14610878  0.60969964    -0.27000
O3353       O  0.46931305  0.14578873  0.67420956    -0.58900
H3354       H  0.46849096  0.17995832  0.65718949     0.15700
O3355       O  0.50766530  0.17064080  0.57807452    -0.60300
H3356       H  0.50922742  0.13654783  0.59627591     0.14200
H3357       H  0.52210697  0.08641570  0.69581703     0.46000
H3358       H  0.47940868  0.14940781  0.68929253     0.41400
H3359       H  0.52360343  0.17343684  0.58202778     0.44900
H3360       H  0.45673173  0.11668847  0.60343585     0.36300
C3361       C  0.29471886  0.01930732  0.24444238    -0.27900
C3362       C  0.28555553  0.00275005  0.25495548     0.01700
C3363       C  0.28779387  0.98613996  0.23998240     0.29800
C3364       C  0.29838817  0.98637302  0.21464617    -0.19700
C3365       C  0.30732126  0.00298637  0.20390301    -0.29100
C3366       C  0.30578030  0.01948443  0.21935786     0.43800
C3367       C  0.27374557  0.00295754  0.28152104     0.05000
O3368       O  0.27963501  0.96958833  0.24988742    -0.57600
H3369       H  0.29955502  0.97345852  0.20332378     0.17900
O3370       O  0.31385176  0.03608292  0.20951600    -0.64300
H3371       H  0.29291526  0.03227925  0.25547831     0.16400
C3372       C  0.28401606  0.01064535  0.30460760     0.28600
C3373       C  0.27272433  0.01072816  0.32946670    -0.25200
C3374       C  0.25096434  0.00333370  0.33202121    -0.24500
C3375       C  0.24067119  0.99558201  0.30886238     0.40100
C3376       C  0.25202278  0.99552953  0.28387405    -0.27000
O3377       O  0.30548396  0.01744279  0.30332504    -0.58900
H3378       H  0.28124812  0.01654140  0.34692457     0.15700
O3379       O  0.21925808  0.98871349  0.31009120    -0.60300
H3380       H  0.24371080  0.98985127  0.26617353     0.14200
H3381       H  0.32879073  0.03758367  0.21806107     0.46000
H3382       H  0.30393662  0.03121310  0.30424680     0.41400
H3383       H  0.22102402  0.97502162  0.31217128     0.44900
H3384       H  0.29168680  0.96458281  0.26171991     0.36300
C3385       C  0.45657233  0.99010414  0.18467439    -0.27900
C3386       C  0.46150326  0.00635545  0.19912812     0.01700
C3387       C  0.44730594  0.02198355  0.19679688     0.29800
C3388       C  0.42826161  0.02107077  0.18036735    -0.19700
C3389       C  0.42315148  0.00469613  0.16596053    -0.29100
C3390       C  0.43765767  0.98913511  0.16821538     0.43800
C3391       C  0.48162986  0.00675946  0.21640496     0.05000
O3392       O  0.45191414  0.03820647  0.21042051    -0.57600
H3393       H  0.41762593  0.03329067  0.17874199     0.17900
O3394       O  0.43338869  0.97273392  0.15487465    -0.64300
H3395       H  0.46760473  0.97810562  0.18591364     0.16400
C3396       C  0.48519506  0.99298529  0.23630860     0.28600
C3397       C  0.50444894  0.99354127  0.25232342    -0.25200
C3398       C  0.52060615  0.00761827  0.24867501    -0.24500
C3399       C  0.51704919  0.02126048  0.22833094     0.40100
C3400       C  0.49770603  0.02069136  0.21241002    -0.27000
O3401       O  0.46954201  0.97932012  0.24089737    -0.58900
H3402       H  0.50657810  0.98287586  0.26773754     0.15700
O3403       O  0.53242013  0.03506332  0.22344800    -0.60300
H3404       H  0.49534157  0.03111335  0.19668707     0.14200
H3405       H  0.44286195  0.97313828  0.13831968     0.46000
H3406       H  0.47616886  0.96772249  0.23336363     0.41400
H3407       H  0.52626633  0.04633480  0.23244218     0.44900
H3408       H  0.44557246  0.03642658  0.22885782     0.36300
C3409       C  0.24600356  0.00087219  0.96095106    -0.27900
C3410       C  0.23111614  0.01581137  0.96432937     0.01700
C3411       C  0.23622922  0.03025058  0.98238651     0.29800
C3412       C  0.25591286  0.02940890  0.99744485    -0.19700
C3413       C  0.27079840  0.01420834  0.99483337    -0.29100
C3414       C  0.26588094  0.00004271  0.97588482     0.43800
C3415       C  0.21004871  0.01617815  0.94918283     0.05000
O3416       O  0.22142291  0.04465764  0.98656344    -0.57600
H3417       H  0.25914408  0.04055615  0.01173868     0.17900
O3418       O  0.27975278  0.98494481  0.97259859    -0.64300
H3419       H  0.24207906  0.98976366  0.94684224     0.16400
C3420       C  0.20593072  0.03031374  0.93012703     0.28600
C3421       C  0.18568688  0.03068129  0.91621645    -0.25200
C3422       C  0.16939526  0.01678630  0.92057475    -0.24500
C3423       C  0.17357649  0.00270509  0.94007271     0.40100
C3424       C  0.19387891  0.00247762  0.95412781    -0.27000
O3425       O  0.22179463  0.04362490  0.92458043    -0.58900
H3426       H  0.18317218  0.04161597  0.90129826     0.15700
O3427       O  0.15835259  0.98882041  0.94509801    -0.60300
H3428       H  0.19703742  0.99158705  0.96895353     0.14200
H3429       H  0.29050311  0.98869729  0.95823104     0.46000
H3430       H  0.23181052  0.03789080  0.91083714     0.41400
H3431       H  0.14889933  0.99355992  0.96015650     0.44900
H3432       H  0.22821790  0.05565117  0.97750842     0.36300
C3433       C  0.40245608  0.02148545  0.92267824    -0.27900
C3434       C  0.39804953  0.00599836  0.90626529     0.01700
C3435       C  0.38539526  0.99113033  0.91680198     0.29800
C3436       C  0.37718480  0.99193550  0.94344948    -0.19700
C3437       C  0.38157430  0.00743974  0.96017175    -0.29100
C3438       C  0.39445209  0.02229694  0.94940225     0.43800
C3439       C  0.40643757  0.00564675  0.87799327     0.05000
O3440       O  0.38099579  0.97572991  0.90120957    -0.57600
H3441       H  0.36752263  0.98026767  0.95108847     0.17900
O3442       O  0.39938939  0.03770972  0.96471674    -0.64300
H3443       H  0.41222129  0.03300230  0.91472212     0.16400
C3444       C  0.39716402  0.01748768  0.85820353     0.28600
C3445       C  0.40507684  0.01689123  0.83145131    -0.25200
C3446       C  0.42266428  0.00479289  0.82392230    -0.24500
C3447       C  0.43222177  0.99315792  0.84416406     0.40100
C3448       C  0.42389495  0.99352701  0.87080084    -0.27000
O3449       O  0.37985394  0.02929649  0.86468212    -0.58900
H3450       H  0.39733608  0.02601839  0.81659806     0.15700
O3451       O  0.44952681  0.98121279  0.83824675    -0.60300
H3452       H  0.43125270  0.98443987  0.88600551     0.14200
H3453       H  0.38789527  0.04712148  0.95972284     0.46000
H3454       H  0.38690251  0.04168629  0.86726757     0.41400
H3455       H  0.46336531  0.98834105  0.84227049     0.44900
H3456       H  0.36780730  0.97920446  0.89002327     0.36300
C3457       C  0.50087236  0.24313804  0.07495314    -0.27900
C3458       C  0.48155354  0.25256475  0.06631094     0.01700
C3459       C  0.48144554  0.26184434  0.04117552     0.29800
C3460       C  0.50075930  0.26220227  0.02536952    -0.19700
C3461       C  0.52045035  0.25328120  0.03417487    -0.29100
C3462       C  0.52033764  0.24348961  0.05912780     0.43800
C3463       C  0.46215126  0.25419963  0.08449793     0.05000
O3464       O  0.46261702  0.27096714  0.03216874    -0.57600
H3465       H  0.50026796  0.26954656  0.00612024     0.17900
O3466       O  0.53921543  0.23468077  0.06862788    -0.64300
H3467       H  0.50110031  0.23609800  0.09445019     0.16400
C3468       C  0.44981262  0.23849363  0.09265484     0.28600
C3469       C  0.43091029  0.24078818  0.10911652    -0.25200
C3470       C  0.42433611  0.25865214  0.11785847    -0.24500
C3471       C  0.43695640  0.27433556  0.10969500     0.40100
C3472       C  0.45570764  0.27198506  0.09323536    -0.27000
O3473       O  0.45562242  0.22100031  0.08382518    -0.58900
H3474       H  0.42154544  0.22855118  0.11526912     0.15700
O3475       O  0.43105777  0.29206227  0.11741893    -0.60300
H3476       H  0.46523684  0.28414422  0.08707844     0.14200
H3477       H  0.54745195  0.24432536  0.07901659     0.46000
H3478       H  0.46420070  0.21534270  0.09900736     0.41400
H3479       H  0.41999912  0.29629785  0.10368082     0.44900
H3480       H  0.45342380  0.26123551  0.02324625     0.36300
C3481       C  0.40122827  0.24888528  0.36577738    -0.27900
C3482       C  0.39807028  0.26490976  0.38156540     0.01700
C3483       C  0.38797915  0.28072499  0.36978207     0.29800
C3484       C  0.38140505  0.28042200  0.34245094    -0.19700
C3485       C  0.38472634  0.26441671  0.32635920    -0.29100
C3486       C  0.39472090  0.24851600  0.33846170     0.43800
C3487       C  0.40555694  0.26497596  0.41024871     0.05000
O3488       O  0.38429830  0.29649814  0.38488885    -0.57600
H3489       H  0.37371780  0.29279758  0.33384668     0.17900
O3490       O  0.39744815  0.23226328  0.32415532    -0.64300
H3491       H  0.40892165  0.23659349  0.37464983     0.16400
C3492       C  0.39665526  0.25228836  0.42917641     0.28600
C3493       C  0.40453458  0.25212515  0.45595816    -0.25200
C3494       C  0.42151516  0.26444944  0.46441552    -0.24500
C3495       C  0.43012320  0.27740397  0.44532808     0.40100
C3496       C  0.42209538  0.27756773  0.41859917    -0.27000
O3497       O  0.37970029  0.24041248  0.42186802    -0.58900
H3498       H  0.39731114  0.24219768  0.47006458     0.15700
O3499       O  0.44613512  0.29018350  0.45252243    -0.60300
H3500       H  0.42904513  0.28743685  0.40419040     0.14200
H3501       H  0.41358656  0.23179887  0.31935768     0.46000
H3502       H  0.38698458  0.22809820  0.41925119     0.41400
H3503       H  0.46057969  0.28472200  0.44646472     0.44900
H3504       H  0.37021927  0.29406815  0.39500766     0.36300
C3505       C  0.30375443  0.11717067  0.12109531    -0.27900
C3506       C  0.31578619  0.12390786  0.14349195     0.01700
C3507       C  0.32886723  0.11131661  0.15876539     0.29800
C3508       C  0.32997927  0.09245115  0.15144003    -0.19700
C3509       C  0.31831517  0.08561463  0.12866444    -0.29100
C3510       C  0.30480403  0.09827216  0.11370247     0.43800
C3511       C  0.31531488  0.14414175  0.15038536     0.05000
O3512       O  0.34118369  0.11740411  0.18052577    -0.57600
H3513       H  0.34051709  0.08324897  0.16338405     0.17900
O3514       O  0.29311346  0.09257964  0.09123726    -0.64300
H3515       H  0.29355067  0.12664799  0.10916469     0.16400
C3516       C  0.32228489  0.15769805  0.13147069     0.28600
C3517       C  0.32389477  0.17646215  0.13921461    -0.25200
C3518       C  0.31848895  0.18222202  0.16576348    -0.24500
C3519       C  0.31053708  0.16868960  0.18433576     0.40100
C3520       C  0.30911404  0.14988474  0.17659501    -0.27000
O3521       O  0.32908693  0.15255879  0.10593394    -0.58900
H3522       H  0.32998766  0.18647228  0.12445056     0.15700
O3523       O  0.30546749  0.17338699  0.21061154    -0.60300
H3524       H  0.30360890  0.13963901  0.19135932     0.14200
H3525       H  0.27819784  0.08877092  0.09817927     0.46000
H3526       H  0.31682631  0.15657265  0.09363051     0.41400
H3527       H  0.28913048  0.17596024  0.21060527     0.44900
H3528       H  0.35484921  0.12307675  0.17256791     0.36300
C3529       C  0.16415812  0.10659309  0.77976267    -0.27900
C3530       C  0.14921842  0.12062504  0.77151335     0.01700
C3531       C  0.12699982  0.11563410  0.76485225     0.29800
C3532       C  0.11960831  0.09714974  0.76874164    -0.19700
C3533       C  0.13406810  0.08355957  0.77959285    -0.29100
C3534       C  0.15680097  0.08824765  0.78373232     0.43800
C3535       C  0.15639257  0.14049571  0.77365077     0.05000
O3536       O  0.11241898  0.12881962  0.75487764    -0.57600
H3537       H  0.10218380  0.09379091  0.76500467     0.17900
O3538       O  0.17177457  0.07517268  0.79303866    -0.64300
H3539       H  0.18133421  0.11008685  0.78474666     0.16400
C3540       C  0.14512997  0.15262437  0.79148570     0.28600
C3541       C  0.15399533  0.17021332  0.79711656    -0.25200
C3542       C  0.17430067  0.17628075  0.78550481    -0.24500
C3543       C  0.18507866  0.16453308  0.76656965     0.40100
C3544       C  0.17616371  0.14675027  0.76090765    -0.27000
O3545       O  0.12656052  0.14674768  0.80555649    -0.58900
H3546       H  0.14513169  0.17889876  0.81157338     0.15700
O3547       O  0.20462002  0.16995398  0.75420479    -0.60300
H3548       H  0.18510320  0.13756643  0.74719779     0.14200
H3549       H  0.17829230  0.06949104  0.77646320     0.46000
H3550       H  0.11410435  0.15491237  0.79938657     0.41400
H3551       H  0.21675364  0.16368375  0.76454762     0.44900
H3552       H  0.10010950  0.12972663  0.76836264     0.36300
C3553       C  0.25047193  0.26042792  0.00266062    -0.27900
C3554       C  0.27348159  0.25658411  0.00563066     0.01700
C3555       C  0.28607521  0.25202358  0.98241938     0.29800
C3556       C  0.27572127  0.25106950  0.95693007    -0.19700
C3557       C  0.25269906  0.25488275  0.95374756    -0.29100
C3558       C  0.24004936  0.25953329  0.97703753     0.43800
C3559       C  0.28437582  0.25734747  0.03286625     0.05000
O3560       O  0.30866566  0.24870492  0.98438139    -0.57600
H3561       H  0.28592259  0.24758926  0.93944244     0.17900
O3562       O  0.21746011  0.26287073  0.97513617    -0.64300
H3563       H  0.24048600  0.26386206  0.02034562     0.16400
C3564       C  0.28501304  0.27404857  0.04778698     0.28600
C3565       C  0.29573883  0.27458952  0.07313274    -0.25200
C3566       C  0.30603033  0.25858941  0.08428278    -0.24500
C3567       C  0.30544099  0.24185037  0.06919595     0.40100
C3568       C  0.29477325  0.24136659  0.04374160    -0.27000
O3569       O  0.27599514  0.29012454  0.03723936    -0.58900
H3570       H  0.29609349  0.28769624  0.08404882     0.15700
O3571       O  0.31489203  0.22579355  0.07922139    -0.60300
H3572       H  0.29441995  0.22838374  0.03251689     0.14200
H3573       H  0.21025993  0.25058701  0.97825473     0.46000
H3574       H  0.26117998  0.29148072  0.04616141     0.41400
H3575       H  0.30324899  0.22019172  0.09107126     0.44900
H3576       H  0.31579645  0.26114109  0.98263371     0.36300
C3577       C  0.06114040  0.23426293  0.96595964    -0.27900
C3578       C  0.07101693  0.25121573  0.95850744     0.01700
C3579       C  0.05983718  0.26809409  0.96359819     0.29800
C3580       C  0.03951913  0.26792801  0.97766601    -0.19700
C3581       C  0.03033775  0.25102528  0.98684534    -0.29100
C3582       C  0.04085913  0.23404054  0.97989338     0.43800
C3583       C  0.09258954  0.25083936  0.94436834     0.05000
O3584       O  0.06850634  0.28469825  0.95452229    -0.57600
H3585       H  0.03158425  0.28110624  0.98257725     0.17900
O3586       O  0.03187467  0.21718843  0.98739468    -0.64300
H3587       H  0.06944007  0.22116582  0.96140068     0.16400
C3588       C  0.11186296  0.25918599  0.95542222     0.28600
C3589       C  0.13226315  0.25796820  0.94151299    -0.25200
C3590       C  0.13361465  0.24813944  0.91694695    -0.24500
C3591       C  0.11408783  0.23991330  0.90603428     0.40100
C3592       C  0.09390040  0.24121864  0.91985251    -0.27000
O3593       O  0.11093727  0.26830553  0.97985816    -0.58900
H3594       H  0.14702427  0.26450172  0.95004794     0.15700
O3595       O  0.11432463  0.23092640  0.88148583    -0.60300
H3596       H  0.07907341  0.23482922  0.91121921     0.14200
H3597       H  0.02202733  0.21354120  0.97208430     0.46000
H3598       H  0.11637490  0.25912551  0.99345294     0.41400
H3599       H  0.10943559  0.24041539  0.86802952     0.44900
H3600       H  0.07378382  0.29127782  0.97101418     0.36300
C3601       C  0.31864363  0.27172963  0.72895549    -0.27900
C3602       C  0.32380002  0.25579438  0.71384066     0.01700
C3603       C  0.30937964  0.24032967  0.71457077     0.29800
C3604       C  0.28989641  0.24104500  0.73024135    -0.19700
C3605       C  0.28465617  0.25703146  0.74555370    -0.29100
C3606       C  0.29930782  0.27251842  0.74465253     0.43800
C3607       C  0.34419637  0.25582322  0.69715099     0.05000
O3608       O  0.31427395  0.22442103  0.70029034    -0.57600
H3609       H  0.27915782  0.22888071  0.73081405     0.17900
O3610       O  0.29496574  0.28857671  0.75886828    -0.64300
H3611       H  0.32984355  0.28361653  0.72882777     0.16400
C3612       C  0.34778525  0.27021329  0.67828951     0.28600
C3613       C  0.36781653  0.27095729  0.66393304    -0.25200
C3614       C  0.38465907  0.25747239  0.66800105    -0.24500
C3615       C  0.38074042  0.24272002  0.68645171     0.40100
C3616       C  0.36064002  0.24208598  0.70102918    -0.27000
O3617       O  0.33148776  0.28332740  0.67324290    -0.58900
H3618       H  0.36998935  0.28217787  0.64940383     0.15700
O3619       O  0.39657612  0.22919334  0.69104813    -0.60300
H3620       H  0.35805428  0.23104015  0.71575585     0.14200
H3621       H  0.30393083  0.28749981  0.77576912     0.46000
H3622       H  0.33696525  0.29500451  0.68172148     0.41400
H3623       H  0.39189495  0.21845481  0.67972269     0.44900
H3624       H  0.30886199  0.22685090  0.68157869     0.36300
C3625       C  0.17337365  0.61315485  0.02805536    -0.27900
C3626       C  0.15351968  0.62011527  0.01642640     0.01700
C3627       C  0.14075076  0.60838044  0.99964224     0.29800
C3628       C  0.14845483  0.59045057  0.99354773    -0.19700
C3629       C  0.16897090  0.58370150  0.00387479    -0.29100
C3630       C  0.18100953  0.59503574  0.02217485     0.43800
C3631       C  0.14811679  0.64032089  0.01790186     0.05000
O3632       O  0.12182699  0.61493849  0.98693581    -0.57600
H3633       H  0.13862462  0.58209095  0.97966370     0.17900
O3634       O  0.20100431  0.58915253  0.03291709    -0.64300
H3635       H  0.18345829  0.62209286  0.04086573     0.16400
C3636       C  0.12681307  0.64680879  0.02604567     0.28600
C3637       C  0.12055121  0.66537972  0.02099313    -0.25200
C3638       C  0.13533803  0.67766327  0.00780749    -0.24500
C3639       C  0.15736692  0.67155864  0.00209758     0.40100
C3640       C  0.16359122  0.65307177  0.00727739    -0.27000
O3641       O  0.11157748  0.63487626  0.03756684    -0.58900
H3642       H  0.10365009  0.66982057  0.02584981     0.15700
O3643       O  0.17283636  0.68347917  0.99094304    -0.60300
H3644       H  0.18014949  0.64839246  0.00127073     0.14200
H3645       H  0.19706616  0.58334422  0.05057828     0.46000
H3646       H  0.11619107  0.63373062  0.05684341     0.41400
H3647       H  0.17402343  0.67982175  0.97157368     0.44900
H3648       H  0.10910976  0.60901936  0.99662908     0.36300
C3649       C  0.08704362  0.52359001  0.86493490    -0.27900
C3650       C  0.08400475  0.51049261  0.84432755     0.01700
C3651       C  0.10186108  0.49860084  0.83709347     0.29800
C3652       C  0.12241632  0.49991683  0.85074839    -0.19700
C3653       C  0.12546566  0.51301540  0.87161651    -0.29100
C3654       C  0.10738281  0.52496738  0.87853092     0.43800
C3655       C  0.06244766  0.51037830  0.82966327     0.05000
O3656       O  0.09972381  0.48638613  0.81581902    -0.57600
H3657       H  0.13597217  0.49068431  0.84489211     0.17900
O3658       O  0.10918714  0.53809348  0.89862463    -0.64300
H3659       H  0.07344677  0.53284009  0.87066577     0.16400
C3660       C  0.04989846  0.49392887  0.82646718     0.28600
C3661       C  0.03030567  0.49420222  0.81094757    -0.25200
C3662       C  0.02279943  0.51083291  0.79880386    -0.24500
C3663       C  0.03444698  0.52758933  0.80394809     0.40100
C3664       C  0.05411713  0.52722238  0.81919225    -0.27000
O3665       O  0.05678119  0.47747344  0.83805137    -0.58900
H3666       H  0.02152340  0.48120725  0.80749343     0.15700
O3667       O  0.02678281  0.54438486  0.79415321    -0.60300
H3668       H  0.06324961  0.54011423  0.82218945     0.14200
H3669       H  0.10133521  0.53265769  0.91453562     0.46000
H3670       H  0.05231532  0.47836593  0.85740919     0.41400
H3671       H  0.03685168  0.54757715  0.77879408     0.44900
H3672       H  0.10122792  0.47374079  0.82386607     0.36300
C3673       C  0.22124980  0.40357788  0.87712839    -0.27900
C3674       C  0.23192169  0.39109971  0.89479710     0.01700
C3675       C  0.24115947  0.39772965  0.91914888     0.29800
C3676       C  0.23935915  0.41667125  0.92578490    -0.19700
C3677       C  0.22795719  0.42925672  0.90859873    -0.29100
C3678       C  0.21918031  0.42248597  0.88378763     0.43800
C3679       C  0.23219258  0.37101735  0.88822495     0.05000
O3680       O  0.25210212  0.38579412  0.93648661    -0.57600
H3681       H  0.24641333  0.42137205  0.94484027     0.17900
O3682       O  0.20813151  0.43406272  0.86607009    -0.64300
H3683       H  0.21402764  0.39853864  0.85833494     0.16400
C3684       C  0.21813954  0.35859197  0.90222751     0.28600
C3685       C  0.21766387  0.33975819  0.89499917    -0.25200
C3686       C  0.23091286  0.33292443  0.87349371    -0.24500
C3687       C  0.24526101  0.34550940  0.85969873     0.40100
C3688       C  0.24566787  0.36438679  0.86703638    -0.27000
O3689       O  0.20441058  0.36482007  0.92266037    -0.58900
H3690       H  0.20642969  0.33060025  0.90598428     0.15700
O3691       O  0.25855214  0.33973044  0.83858445    -0.60300
H3692       H  0.25643719  0.37393197  0.85603205     0.14200
H3693       H  0.21942238  0.43753101  0.85217387     0.46000
H3694       H  0.19086130  0.36971120  0.91337496     0.41400
H3695       H  0.27263583  0.33532124  0.84717757     0.44900
H3696       H  0.24056245  0.38163944  0.94966524     0.36300
C3697       C  0.17277744  0.10861891  0.52338576    -0.27900
C3698       C  0.15384805  0.11623848  0.51052934     0.01700
C3699       C  0.14117553  0.10495259  0.49299964     0.29800
C3700       C  0.14805542  0.08670508  0.48748301    -0.19700
C3701       C  0.16765716  0.07922470  0.49913938    -0.29100
C3702       C  0.17955993  0.09018792  0.51813876     0.43800
C3703       C  0.14897188  0.13650653  0.51225099     0.05000
O3704       O  0.12318124  0.11220867  0.47917760    -0.57600
H3705       H  0.13839629  0.07867420  0.47302418     0.17900
O3706       O  0.19864090  0.08357574  0.53034616    -0.64300
H3707       H  0.18274417  0.11719994  0.53683735     0.16400
C3708       C  0.12783134  0.14313948  0.52057367     0.28600
C3709       C  0.12179639  0.16178866  0.51584095    -0.25200
C3710       C  0.13662374  0.17406333  0.50267262    -0.24500
C3711       C  0.15855804  0.16772724  0.49661322     0.40100
C3712       C  0.16456553  0.14913576  0.50158977    -0.27000
O3713       O  0.11247728  0.13121572  0.53186386    -0.58900
H3714       H  0.10497215  0.16628806  0.52094660     0.15700
O3715       O  0.17410978  0.17944051  0.48516703    -0.60300
H3716       H  0.18099948  0.14428129  0.49536902     0.14200
H3717       H  0.19348291  0.07775458  0.54753324     0.46000
H3718       H  0.11511747  0.13191367  0.55171410     0.41400
H3719       H  0.17461149  0.17602738  0.46565463     0.44900
H3720       H  0.10976960  0.10682380  0.48812316     0.36300
C3721       C  0.05647242  0.26346124  0.28527450    -0.27900
C3722       C  0.04569789  0.24736097  0.27559461     0.01700
C3723       C  0.04615652  0.23105836  0.29151155     0.29800
C3724       C  0.05619502  0.23129473  0.31722146    -0.19700
C3725       C  0.06605741  0.24763422  0.32763221    -0.29100
C3726       C  0.06672648  0.26366900  0.31094404     0.43800
C3727       C  0.03415167  0.24774029  0.24882968     0.05000
O3728       O  0.03752540  0.21466891  0.28165045    -0.57600
H3729       H  0.05607593  0.21857288  0.32914875     0.17900
O3730       O  0.07637782  0.27987146  0.31991316    -0.64300
H3731       H  0.05651959  0.27606802  0.27308720     0.16400
C3732       C  0.01127582  0.24307415  0.24628563     0.28600
C3733       C  0.00069887  0.24395607  0.22086761    -0.25200
C3734       C  0.01248402  0.24977629  0.19763770    -0.24500
C3735       C  0.03554086  0.25412968  0.20023679     0.40100
C3736       C  0.04604040  0.25323307  0.22563651    -0.27000
O3737       O  0.99891199  0.23810863  0.26863558    -0.58900
H3738       H  0.98303310  0.24061553  0.21952417     0.15700
O3739       O  0.04805319  0.25934380  0.17810847    -0.60300
H3740       H  0.06365037  0.25675398  0.22719587     0.14200
H3741       H  0.09209225  0.27934223  0.31336558     0.46000
H3742       H  0.99435802  0.25005666  0.27715344     0.41400
H3743       H  0.05625940  0.24792287  0.17253822     0.44900
H3744       H  0.02460132  0.21163505  0.29353216     0.36300
C3745       C  0.99333629  0.26964548  0.56088414    -0.27900
C3746       C  0.98732633  0.25349761  0.57517270     0.01700
C3747       C  0.00026972  0.23719806  0.57219325     0.29800
C3748       C  0.01857258  0.23709517  0.55441683    -0.19700
C3749       C  0.02429846  0.25317119  0.53954458    -0.29100
C3750       C  0.01177757  0.26969860  0.54353460     0.43800
C3751       C  0.96698977  0.25389185  0.59223315     0.05000
O3752       O  0.99498031  0.22126651  0.58626598    -0.57600
H3753       H  0.02798736  0.22427452  0.55187644     0.17900
O3754       O  0.01718856  0.28598309  0.53041095    -0.64300
H3755       H  0.98342306  0.28225757  0.56281204     0.16400
C3756       C  0.96407037  0.26784598  0.61190995     0.28600
C3757       C  0.94385583  0.26918626  0.62600114    -0.25200
C3758       C  0.92606451  0.25682265  0.62075887    -0.24500
C3759       C  0.92927803  0.24254989  0.60134037     0.40100
C3760       C  0.94959354  0.24124293  0.58724327    -0.27000
O3761       O  0.98112056  0.27999940  0.61789103    -0.58900
H3762       H  0.94221886  0.28009397  0.64106623     0.15700
O3763       O  0.91261655  0.23007550  0.59539266    -0.60300
H3764       H  0.95154472  0.23059335  0.57182622     0.14200
H3765       H  0.02758191  0.29254798  0.54285166     0.46000
H3766       H  0.97625521  0.29226068  0.61056277     0.41400
H3767       H  0.91642504  0.21866043  0.60585626     0.44900
H3768       H  0.00502990  0.22124309  0.60230593     0.36300
C3769       C  0.20352163  0.25987034  0.33541526    -0.27900
C3770       C  0.22326112  0.25497662  0.34915256     0.01700
C3771       C  0.22225274  0.24818639  0.37581765     0.29800
C3772       C  0.20148458  0.24583095  0.38829105    -0.19700
C3773       C  0.18156398  0.25037111  0.37448776    -0.29100
C3774       C  0.18268211  0.25770951  0.34798901     0.43800
C3775       C  0.24475099  0.25618053  0.33490350     0.05000
O3776       O  0.24151131  0.24442931  0.39005748    -0.57600
H3777       H  0.20098968  0.24074822  0.40902894     0.17900
O3778       O  0.16359479  0.26264000  0.33419034    -0.64300
H3779       H  0.20430036  0.26512132  0.31478013     0.16400
C3780       C  0.25568673  0.23985478  0.32635754     0.28600
C3781       C  0.27466195  0.24116184  0.31000696    -0.25200
C3782       C  0.28278448  0.25865556  0.30172944    -0.24500
C3783       C  0.27256192  0.27502328  0.31173955     0.40100
C3784       C  0.25348357  0.27367225  0.32805788    -0.27000
O3785       O  0.24729053  0.22258483  0.33274984    -0.58900
H3786       H  0.28242407  0.22843082  0.30272656     0.15700
O3787       O  0.27981870  0.29234532  0.30386358    -0.60300
H3788       H  0.24502870  0.28627590  0.33463589     0.14200
H3789       H  0.15957964  0.25150898  0.32331757     0.46000
H3790       H  0.23617980  0.21981777  0.31833608     0.41400
H3791       H  0.29086311  0.29609176  0.31786420     0.44900
H3792       H  0.24382128  0.23078041  0.38838226     0.36300
C3793       C  0.14641313  0.25657556  0.67567462    -0.27900
C3794       C  0.15799017  0.24551411  0.65684279     0.01700
C3795       C  0.17740657  0.23595061  0.66529433     0.29800
C3796       C  0.18506731  0.23767497  0.69208921    -0.19700
C3797       C  0.17349176  0.24873105  0.71118373    -0.29100
C3798       C  0.15380332  0.25810582  0.70260175     0.43800
C3799       C  0.14995302  0.24448101  0.62830675     0.05000
O3800       O  0.18891460  0.22471392  0.64757507    -0.57600
H3801       H  0.20011853  0.23019253  0.69789546     0.17900
O3802       O  0.14155852  0.26884551  0.72023541    -0.64300
H3803       H  0.13155794  0.26417280  0.66943283     0.16400
C3804       C  0.12797576  0.23870965  0.62212822     0.28600
C3805       C  0.12046314  0.23872282  0.59511026    -0.25200
C3806       C  0.13440527  0.24496835  0.57394616    -0.24500
C3807       C  0.15659118  0.25034998  0.58018753     0.40100
C3808       C  0.16416117  0.25003162  0.60709877    -0.27000
O3809       O  0.11386780  0.23273966  0.64235502    -0.58900
H3810       H  0.10344653  0.23436207  0.59085621     0.15700
O3811       O  0.17102765  0.25612196  0.56018988    -0.60300
H3812       H  0.18109140  0.25455582  0.61150001     0.14200
H3813       H  0.12948448  0.26054141  0.72698529     0.46000
H3814       H  0.10283646  0.24297486  0.64481069     0.41400
H3815       H  0.17922076  0.24472167  0.55453401     0.44900
H3816       H  0.18166320  0.21231009  0.64907827     0.36300
C3817       C  0.13082141  0.61124283  0.26644218    -0.27900
C3818       C  0.15106113  0.61729708  0.27810254     0.01700
C3819       C  0.16339025  0.60471198  0.29422547     0.29800
C3820       C  0.15497399  0.58685713  0.29958302    -0.19700
C3821       C  0.13423033  0.58094872  0.28897082    -0.29100
C3822       C  0.12255478  0.59315525  0.27139870     0.43800
C3823       C  0.15767008  0.63733805  0.27689112     0.05000
O3824       O  0.18275216  0.61029016  0.30682783    -0.57600
H3825       H  0.16450362  0.57780706  0.31295121     0.17900
O3826       O  0.10233619  0.58810125  0.26047338    -0.64300
H3827       H  0.12103736  0.62079348  0.25413202     0.16400
C3828       C  0.17897874  0.64306078  0.26765323     0.28600
C3829       C  0.18645759  0.66139146  0.27240793    -0.25200
C3830       C  0.17275547  0.67432653  0.28605860    -0.24500
C3831       C  0.15057322  0.66899804  0.29272583     0.40100
C3832       C  0.14328790  0.65069557  0.28818782    -0.27000
O3833       O  0.19290422  0.63065385  0.25482509    -0.58900
H3834       H  0.20337463  0.66517404  0.26663705     0.15700
O3835       O  0.13587885  0.68157760  0.30394807    -0.60300
H3836       H  0.12667254  0.64668295  0.29489094     0.14200
H3837       H  0.10583703  0.58389329  0.24176832     0.46000
H3838       H  0.18885894  0.63151978  0.23532260     0.41400
H3839       H  0.13437869  0.67785742  0.32328122     0.44900
H3840       H  0.19507744  0.60458992  0.29614893     0.36300
C3841       C  0.02259914  0.48833790  0.54871372    -0.27900
C3842       C  0.02148848  0.50458207  0.53288622     0.01700
C3843       C  0.01005961  0.52028770  0.54313712     0.29800
C3844       C  0.99989989  0.51955098  0.56879813    -0.19700
C3845       C  0.00103844  0.50329186  0.58479390    -0.29100
C3846       C  0.01244019  0.48753695  0.57430540     0.43800
C3847       C  0.03136151  0.50461716  0.50521840     0.05000
O3848       O  0.00878143  0.53645378  0.52825237    -0.57600
H3849       H  0.99136123  0.53185237  0.57632917     0.17900
O3850       O  0.01342731  0.47110665  0.58858969    -0.64300
H3851       H  0.03091299  0.47601203  0.54089426     0.16400
C3852       C  0.05400685  0.49985201  0.50085059     0.28600
C3853       C  0.06271423  0.49951160  0.47442411    -0.25200
C3854       C  0.04916690  0.50400738  0.45203458    -0.24500
C3855       C  0.02639466  0.50850523  0.45642846     0.40100
C3856       C  0.01772102  0.50881133  0.48282003    -0.27000
O3857       O  0.06800644  0.49641788  0.52238983    -0.58900
H3858       H  0.08029228  0.49623356  0.47153060     0.15700
O3859       O  0.01239316  0.51251360  0.43509403    -0.60300
H3860       H  0.00016535  0.51213624  0.48579708     0.14200
H3861       H  0.00003887  0.46396685  0.58278556     0.46000
H3862       H  0.07029985  0.48271053  0.52255027     0.41400
H3863       H  0.00654079  0.50026787  0.42902552     0.44900
H3864       H  0.02226124  0.54370354  0.53339818     0.36300
C3865       C  0.99799379  0.51709092  0.20961254    -0.27900
C3866       C  0.97781466  0.51016336  0.22011077     0.01700
C3867       C  0.97712130  0.50282042  0.24654377     0.29800
C3868       C  0.99666974  0.50185234  0.26186350    -0.19700
C3869       C  0.01714029  0.50821385  0.25120941    -0.29100
C3870       C  0.01765769  0.51621361  0.22503982     0.43800
C3871       C  0.95805091  0.50874934  0.20254420     0.05000
O3872       O  0.95753052  0.49598056  0.25721963    -0.57600
H3873       H  0.99581865  0.49594911  0.28212110     0.17900
O3874       O  0.03746138  0.52201115  0.21369258    -0.64300
H3875       H  0.99866111  0.52249038  0.18905700     0.16400
C3876       C  0.94689895  0.52469450  0.19282972     0.28600
C3877       C  0.92788079  0.52267878  0.17650962    -0.25200
C3878       C  0.92018815  0.50483406  0.16933669    -0.24500
C3879       C  0.93155165  0.48891640  0.17906072     0.40100
C3880       C  0.95023205  0.49097783  0.19570542    -0.27000
O3881       O  0.95408097  0.54220343  0.19982923    -0.58900
H3882       H  0.91940387  0.53505132  0.16904206     0.15700
O3883       O  0.92405617  0.47128752  0.17321492    -0.60300
H3884       H  0.95875516  0.47863760  0.20323659     0.14200
H3885       H  0.03762903  0.53574690  0.21605651     0.46000
H3886       H  0.96421422  0.54610595  0.18490340     0.41400
H3887       H  0.93384154  0.46678815  0.15830243     0.44900
H3888       H  0.94885742  0.50713402  0.26288588     0.36300
C3889       C  0.16429241  0.50384602  0.18123479    -0.27900
C3890       C  0.14948034  0.50764255  0.15978198     0.01700
C3891       C  0.12679372  0.51135106  0.16560919     0.29800
C3892       C  0.11915065  0.51091820  0.19247951    -0.19700
C3893       C  0.13384234  0.50673217  0.21397671    -0.29100
C3894       C  0.15667062  0.50343271  0.20815524     0.43800
C3895       C  0.15769693  0.50743649  0.13134226     0.05000
O3896       O  0.11192298  0.51535480  0.14515787    -0.57600
H3897       H  0.10157620  0.51361794  0.19646786     0.17900
O3898       O  0.17174360  0.50000931  0.22860291    -0.64300
H3899       H  0.18180227  0.50102480  0.17705778     0.16400
C3900       C  0.17442931  0.51983612  0.12251319     0.28600
C3901       C  0.18158596  0.51961722  0.09536566    -0.25200
C3902       C  0.17239844  0.50699660  0.07651201    -0.24500
C3903       C  0.15574126  0.49437966  0.08572625     0.40100
C3904       C  0.14860201  0.49472332  0.11283162    -0.27000
O3905       O  0.18318613  0.53277492  0.14001560    -0.58900
H3906       H  0.19425015  0.52953320  0.08907380     0.15700
O3907       O  0.14650929  0.48139072  0.06865990    -0.60300
H3908       H  0.13588746  0.48494109  0.11947449     0.14200
H3909       H  0.17658241  0.51250502  0.23491191     0.46000
H3910       H  0.19770986  0.52745914  0.14606989     0.41400
H3911       H  0.13204759  0.48687394  0.06268182     0.44900
H3912       H  0.11462909  0.52862768  0.14047270     0.36300
C3913       C  0.07712293  0.39915897  0.40491130    -0.27900
C3914       C  0.06887995  0.38631956  0.38611388     0.01700
C3915       C  0.06064950  0.39274333  0.36102772     0.29800
C3916       C  0.06111305  0.41187683  0.35484581    -0.19700
C3917       C  0.07030999  0.42482353  0.37320571    -0.29100
C3918       C  0.07813061  0.41818393  0.39863364     0.43800
C3919       C  0.07000994  0.36620070  0.39269929     0.05000
O3920       O  0.05201188  0.38041659  0.34253754    -0.57600
H3921       H  0.05492157  0.41646396  0.33525647     0.17900
O3922       O  0.08669356  0.43012221  0.41769082    -0.64300
H3923       H  0.08344305  0.39432975  0.42433572     0.16400
C3924       C  0.08597740  0.35465881  0.38015670     0.28600
C3925       C  0.08809166  0.33597208  0.38810000    -0.25200
C3926       C  0.07443640  0.32836453  0.40870652    -0.24500
C3927       C  0.05810404  0.34003968  0.42089923     0.40100
C3928       C  0.05623647  0.35880618  0.41307580    -0.27000
O3929       O  0.09992802  0.36163872  0.36046450    -0.58900
H3930       H  0.10078974  0.32753262  0.37828199     0.15700
O3931       O  0.04409919  0.33345874  0.44080198    -0.60300
H3932       H  0.04401732  0.36766978  0.42303303     0.14200
H3933       H  0.10299690  0.42738713  0.41830554     0.46000
H3934       H  0.11343971  0.36597886  0.37031084     0.41400
H3935       H  0.03059470  0.32898973  0.43105682     0.44900
H3936       H  0.06425603  0.37819823  0.32929649     0.36300
C3937       C  0.42407622  0.86870286  0.01355652    -0.27900
C3938       C  0.40289037  0.87406247  0.02337858     0.01700
C3939       C  0.38968326  0.86069510  0.03688348     0.29800
C3940       C  0.39847031  0.84293928  0.04255338    -0.19700
C3941       C  0.42040578  0.83799373  0.03467437    -0.29100
C3942       C  0.43277398  0.85080981  0.01884517     0.43800
C3943       C  0.39643792  0.89417230  0.02394276     0.05000
O3944       O  0.36865784  0.86519870  0.04610144    -0.57600
H3945       H  0.38835510  0.83325328  0.05419006     0.17900
O3946       O  0.45385385  0.84644393  0.00971363    -0.64300
H3947       H  0.43440258  0.87878118  0.00294965     0.16400
C3948       C  0.40948969  0.90673981  0.03904342     0.28600
C3949       C  0.40218622  0.92505371  0.04298026    -0.25200
C3950       C  0.38154087  0.93140292  0.03253017    -0.24500
C3951       C  0.36900777  0.91913983  0.01602975     0.40100
C3952       C  0.37641401  0.90062907  0.01202016    -0.27000
O3953       O  0.42894037  0.90096779  0.05136238    -0.58900
H3954       H  0.41245167  0.93411637  0.05539281     0.15700
O3955       O  0.34918755  0.92479471  0.00455428    -0.60300
H3956       H  0.36619763  0.89114561  0.00024473     0.14200
H3957       H  0.46419784  0.85101128  0.02397194     0.46000
H3958       H  0.42429946  0.89623652  0.06945392     0.41400
H3959       H  0.33754437  0.92196434  0.01832313     0.44900
H3960       H  0.37099468  0.87066273  0.06436442     0.36300
C3961       C  0.52161650  0.75679844  0.30636561    -0.27900
C3962       C  0.53577866  0.75893529  0.28385380     0.01700
C3963       C  0.55906600  0.76062868  0.28794869     0.29800
C3964       C  0.56783440  0.76017667  0.31427430    -0.19700
C3965       C  0.55368939  0.75766078  0.33674702    -0.29100
C3966       C  0.53036907  0.75611870  0.33262754     0.43800
C3967       C  0.52592156  0.76017902  0.25635776     0.05000
O3968       O  0.57340287  0.76252260  0.26634007    -0.57600
H3969       H  0.58579667  0.76131011  0.31706240     0.17900
O3970       O  0.51591947  0.75423462  0.35413792    -0.64300
H3971       H  0.50363108  0.75597446  0.30361759     0.16400
C3972       C  0.51102476  0.74648908  0.24674530     0.28600
C3973       C  0.50134680  0.74839344  0.22101375    -0.25200
C3974       C  0.50616250  0.76393093  0.20454270    -0.24500
C3975       C  0.52108266  0.77764678  0.21433859     0.40100
C3976       C  0.53074295  0.77568925  0.24002223    -0.27000
O3977       O  0.50645311  0.73089459  0.26198036    -0.58900
H3978       H  0.49020960  0.73753496  0.21387267     0.15700
O3979       O  0.52570062  0.79340382  0.19951178    -0.60300
H3980       H  0.54176489  0.78654583  0.24742929     0.14200
H3981       H  0.51257354  0.76716132  0.36007362     0.46000
H3982       H  0.49091066  0.73264185  0.26869361     0.41400
H3983       H  0.54016495  0.79079661  0.19032152     0.44900
H3984       H  0.57784518  0.74961207  0.26147883     0.36300
C3985       C  0.56166288  0.73927086  0.97260436    -0.27900
C3986       C  0.57239927  0.75503726  0.96217351     0.01700
C3987       C  0.56271514  0.77280508  0.96582894     0.29800
C3988       C  0.54300828  0.77462567  0.98118854    -0.19700
C3989       C  0.53300612  0.75883356  0.99295652    -0.29100
C3990       C  0.54208324  0.74099915  0.98760949     0.43800
C3991       C  0.59363890  0.75233834  0.94747005     0.05000
O3992       O  0.57217868  0.78828935  0.95408223    -0.57600
H3993       H  0.53615808  0.78840563  0.98485582     0.17900
O3994       O  0.53237405  0.72511688  0.99779170    -0.64300
H3995       H  0.56880318  0.72550517  0.96961582     0.16400
C3996       C  0.61350273  0.76113874  0.95585903     0.28600
C3997       C  0.63341942  0.75797109  0.94166014    -0.25200
C3998       C  0.63395674  0.74572363  0.91938194    -0.24500
C3999       C  0.61421643  0.73601808  0.91222182     0.40100
C4000       C  0.59430417  0.73955848  0.92603863    -0.27000
O4001       O  0.61365893  0.77278114  0.97792425    -0.58900
H4002       H  0.64839861  0.76532692  0.94790243     0.15700
O4003       O  0.61375477  0.72380155  0.89083058    -0.60300
H4004       H  0.57918265  0.73239167  0.91978971     0.14200
H4005       H  0.52178762  0.72095728  0.98353086     0.46000
H4006       H  0.61543365  0.76444576  0.99388625     0.41400
H4007       H  0.61592111  0.71128069  0.89905340     0.44900
H4008       H  0.57810961  0.79581662  0.96934360     0.36300
C4009       C  0.36168228  0.74375269  0.20074952    -0.27900
C4010       C  0.34251173  0.75386526  0.19341498     0.01700
C4011       C  0.34335388  0.76610026  0.17110296     0.29800
C4012       C  0.36335501  0.76845180  0.15686119    -0.19700
C4013       C  0.38287078  0.75871773  0.16448028    -0.29100
C4014       C  0.38176847  0.74603773  0.18649402     0.43800
C4015       C  0.32249522  0.75308041  0.21090453     0.05000
O4016       O  0.32482137  0.77617497  0.16345710    -0.57600
H4017       H  0.36353524  0.77805585  0.13984551     0.17900
O4018       O  0.40040647  0.73656437  0.19525356    -0.64300
H4019       H  0.36131719  0.73456884  0.21825720     0.16400
C4020       C  0.31151092  0.73615547  0.21649472     0.28600
C4021       C  0.29330030  0.73589065  0.23444783    -0.25200
C4022       C  0.28625224  0.75230961  0.24749891    -0.24500
C4023       C  0.29724043  0.76926559  0.24156121     0.40100
C4024       C  0.31506982  0.76953367  0.22327096    -0.27000
O4025       O  0.31819452  0.71994414  0.20409103    -0.58900
H4026       H  0.28508001  0.72273640  0.23869643     0.15700
O4027       O  0.29036929  0.78575551  0.25300468    -0.60300
H4028       H  0.32350093  0.78262878  0.21919960     0.14200
H4029       H  0.39828253  0.72353487  0.18901751     0.46000
H4030       H  0.32597377  0.71263004  0.21839115     0.41400
H4031       H  0.30148654  0.78845407  0.26744202     0.44900
H4032       H  0.31612025  0.76770213  0.15158140     0.36300
C4033       C  0.38947522  0.41038585  0.24026615    -0.27900
C4034       C  0.40395644  0.39769270  0.25307878     0.01700
C4035       C  0.42471777  0.40413429  0.26299872     0.29800
C4036       C  0.43120458  0.42271791  0.25868743    -0.19700
C4037       C  0.41732157  0.43511029  0.24421533    -0.29100
C4038       C  0.39591475  0.42890725  0.23589026     0.43800
C4039       C  0.39837097  0.37747769  0.25278347     0.05000
O4040       O  0.43926231  0.39215213  0.27577358    -0.57600
H4041       H  0.44764864  0.42713284  0.26539566     0.17900
O4042       O  0.38144840  0.44057872  0.22237466    -0.64300
H4043       H  0.37354541  0.40568706  0.23227970     0.16400
C4044       C  0.37779017  0.37071686  0.26280174     0.28600
C4045       C  0.37179806  0.35196384  0.25879257    -0.25200
C4046       C  0.38593083  0.33978138  0.24434202    -0.24500
C4047       C  0.40698996  0.34644700  0.23544022     0.40100
C4048       C  0.41302476  0.36506007  0.23978465    -0.27000
O4049       O  0.36349069  0.38234020  0.27659556    -0.58900
H4050       H  0.35561606  0.34719852  0.26595615     0.15700
O4051       O  0.42187379  0.33488225  0.22244963    -0.60300
H4052       H  0.42889683  0.37000726  0.23187725     0.14200
H4053       H  0.37487336  0.44870446  0.23658925     0.46000
H4054       H  0.35131161  0.38534222  0.26359165     0.41400
H4055       H  0.42078529  0.33821310  0.20292783     0.44900
H4056       H  0.43329965  0.39071247  0.29445869     0.36300
C4057       C  0.52548565  0.49543992  0.04610599    -0.27900
C4058       C  0.52219101  0.51069761  0.02873290     0.01700
C4059       C  0.50805860  0.52534663  0.03735893     0.29800
C4060       C  0.49752657  0.52454762  0.06289122    -0.19700
C4061       C  0.50110786  0.50940168  0.08064401    -0.29100
C4062       C  0.51537529  0.49473102  0.07178933     0.43800
C4063       C  0.53324817  0.51090715  0.00153138     0.05000
O4064       O  0.50475268  0.54071806  0.02120851    -0.57600
H4065       H  0.48688600  0.53606141  0.06899764     0.17900
O4066       O  0.51931711  0.47936331  0.08776613    -0.64300
H4067       H  0.53595139  0.48388333  0.03968610     0.16400
C4068       C  0.55653091  0.50785115  0.99867397     0.28600
C4069       C  0.56639971  0.50736580  0.97278101    -0.25200
C4070       C  0.55347294  0.51034579  0.94935455    -0.24500
C4071       C  0.53014253  0.51336088  0.95225694     0.40100
C4072       C  0.52029284  0.51359344  0.97807558    -0.27000
O4073       O  0.56988487  0.50568607  0.02112033    -0.58900
H4074       H  0.58432728  0.50521450  0.97109370     0.15700
O4075       O  0.51668658  0.51600746  0.92997507    -0.60300
H4076       H  0.50235038  0.51566050  0.97975222     0.14200
H4077       H  0.53451699  0.48125018  0.09544855     0.46000
H4078       H  0.57513625  0.51843724  0.02559668     0.41400
H4079       H  0.51396929  0.50334042  0.92261693     0.44900
H4080       H  0.51742175  0.54917743  0.02539836     0.36300
C4081       C  0.32902427  0.50469065  0.02986089    -0.27900
C4082       C  0.32951627  0.51445480  0.05442211     0.01700
C4083       C  0.31012314  0.52362885  0.06362946     0.29800
C4084       C  0.29019595  0.52221412  0.04891827    -0.19700
C4085       C  0.28925831  0.51164464  0.02492756    -0.29100
C4086       C  0.30919357  0.50340396  0.01492360     0.43800
C4087       C  0.34969116  0.51365513  0.07155930     0.05000
O4088       O  0.31028895  0.53344120  0.08751781    -0.57600
H4089       H  0.27529199  0.52893663  0.05683631     0.17900
O4090       O  0.30949891  0.49385210  0.99080677    -0.64300
H4091       H  0.34401379  0.49780509  0.02245998     0.16400
C4092       C  0.35677278  0.49654131  0.08259485     0.28600
C4093       C  0.37444530  0.49609233  0.10109670    -0.25200
C4094       C  0.38558602  0.51255131  0.10856041    -0.24500
C4095       C  0.37885848  0.52966417  0.09678789     0.40100
C4096       C  0.36097692  0.53009627  0.07844151    -0.27000
O4097       O  0.34571435  0.48031350  0.07651612    -0.58900
H4098       H  0.37934118  0.48278147  0.10975783     0.15700
O4099       O  0.38909905  0.54610570  0.10362319    -0.60300
H4100       H  0.35558925  0.54333358  0.06997188     0.14200
H4101       H  0.31559028  0.50277853  0.97727602     0.46000
H4102       H  0.35486580  0.47426129  0.06219019     0.41400
H4103       H  0.38110066  0.55054680  0.12005266     0.44900
H4104       H  0.30652120  0.52418594  0.10179776     0.36300
C4105       C  0.55557312  0.49524716  0.32032523    -0.27900
C4106       C  0.56792953  0.51170789  0.32329359     0.01700
C4107       C  0.55999233  0.52843350  0.31188700     0.29800
C4108       C  0.54000987  0.52847731  0.29734377    -0.19700
C4109       C  0.52776410  0.51194100  0.29361425    -0.29100
C4110       C  0.53548304  0.49527056  0.30573523     0.43800
C4111       C  0.58899292  0.51147525  0.33864268     0.05000
O4112       O  0.57243826  0.54450488  0.31337699    -0.57600
H4113       H  0.53453088  0.54144687  0.28810663     0.17900
O4114       O  0.52440888  0.47873427  0.30200041    -0.64300
H4115       H  0.56162943  0.48232816  0.32916992     0.16400
C4116       C  0.59157368  0.52320426  0.36117547     0.28600
C4117       C  0.61192869  0.52378056  0.37470030    -0.25200
C4118       C  0.62994568  0.51241304  0.36656757    -0.24500
C4119       C  0.62711428  0.50013034  0.34448220     0.40100
C4120       C  0.60666710  0.49977375  0.33061822    -0.27000
O4121       O  0.57420770  0.53411522  0.37026084    -0.58900
H4122       H  0.61335421  0.53296113  0.39205567     0.15700
O4123       O  0.64405218  0.48846404  0.33627148    -0.60300
H4124       H  0.60467689  0.49055983  0.31336948     0.14200
H4125       H  0.51553708  0.47685420  0.31881631     0.46000
H4126       H  0.56483326  0.52572120  0.38154616     0.41400
H4127       H  0.65388799  0.49624582  0.32463499     0.44900
H4128       H  0.56357671  0.55320359  0.32479526     0.36300
C4129       C  0.48986244  0.61569909  0.12924836    -0.27900
C4130       C  0.49776674  0.62777490  0.14953701     0.01700
C4131       C  0.50317964  0.62022830  0.17518864     0.29800
C4132       C  0.50004325  0.60117167  0.18038822    -0.19700
C4133       C  0.49140180  0.58914913  0.16038310    -0.29100
C4134       C  0.48663406  0.59662080  0.13443529     0.43800
C4135       C  0.49869694  0.64829174  0.14420677     0.05000
O4136       O  0.51113806  0.63140775  0.19558200    -0.57600
H4137       H  0.50377475  0.59593382  0.20054324     0.17900
O4138       O  0.47896359  0.58542035  0.11389105    -0.64300
H4139       H  0.48535801  0.62117543  0.10947118     0.16400
C4140       C  0.50880486  0.65557538  0.12057706     0.28600
C4141       C  0.50687900  0.67466974  0.11435512    -0.25200
C4142       C  0.49488696  0.68690313  0.13138661    -0.24500
C4143       C  0.48633232  0.67975189  0.15613406     0.40100
C4144       C  0.48798987  0.66067012  0.16208813    -0.27000
O4145       O  0.52081919  0.64414203  0.10360173    -0.58900
H4146       H  0.51415659  0.67972358  0.09558071     0.15700
O4147       O  0.47570014  0.69110789  0.17444809    -0.60300
H4148       H  0.48014375  0.65544237  0.18042576     0.14200
H4149       H  0.46302750  0.58896900  0.11129326     0.46000
H4150       H  0.51179925  0.64319483  0.08674723     0.41400
H4151       H  0.48787496  0.69663716  0.18551472     0.44900
H4152       H  0.52735895  0.63286981  0.19177203     0.36300
C4153       C  0.39386228  0.90482101  0.75406863    -0.27900
C4154       C  0.40934510  0.89157843  0.76344586     0.01700
C4155       C  0.43166339  0.89708884  0.76829966     0.29800
C4156       C  0.43845273  0.91536999  0.76241856    -0.19700
C4157       C  0.42332604  0.92820114  0.75101370    -0.29100
C4158       C  0.40069273  0.92292847  0.74764520     0.43800
C4159       C  0.40312865  0.87160937  0.76229773     0.05000
O4160       O  0.44730721  0.88432035  0.77684556    -0.57600
H4161       H  0.45590459  0.91911036  0.76504949     0.17900
O4162       O  0.38533587  0.93502033  0.73658674    -0.64300
H4163       H  0.37676704  0.90072814  0.74969558     0.16400
C4164       C  0.38419660  0.86443736  0.77586773     0.28600
C4165       C  0.37656280  0.84632950  0.76999245    -0.25200
C4166       C  0.38742446  0.83537756  0.75026651    -0.24500
C4167       C  0.40723629  0.84232144  0.73810906     0.40100
C4168       C  0.41473577  0.86023121  0.74402601    -0.27000
O4169       O  0.37308035  0.87505700  0.79473404    -0.58900
H4170       H  0.36158900  0.84122371  0.77997273     0.15700
O4171       O  0.41911898  0.83200737  0.71959226    -0.60300
H4172       H  0.42919006  0.86559158  0.73320774     0.14200
H4173       H  0.37963106  0.94245111  0.75208258     0.46000
H4174       H  0.35888395  0.87890357  0.78585528     0.41400
H4175       H  0.42982244  0.82453347  0.73054616     0.44900
H4176       H  0.44762601  0.88548606  0.79689395     0.36300
C4177       C  0.28065892  0.74059776  0.49036904    -0.27900
C4178       C  0.26914808  0.74984366  0.51122793     0.01700
C4179       C  0.24797638  0.75774870  0.50555194     0.29800
C4180       C  0.23883760  0.75651471  0.47935787    -0.19700
C4181       C  0.25038537  0.74723990  0.45842320    -0.29100
C4182       C  0.27154035  0.73923461  0.46429158     0.43800
C4183       C  0.27983553  0.75174581  0.53841707     0.05000
O4184       O  0.23606375  0.76672918  0.52546561    -0.57600
H4185       H  0.22260110  0.76277478  0.47549112     0.17900
O4186       O  0.28384550  0.73042529  0.44455908    -0.64300
H4187       H  0.29715964  0.73480346  0.49407813     0.16400
C4188       C  0.28888498  0.73616998  0.55215845     0.28600
C4189       C  0.29950472  0.73846310  0.57733735    -0.25200
C4190       C  0.30124898  0.75616127  0.58937635    -0.24500
C4191       C  0.29207023  0.77171785  0.57568471     0.40100
C4192       C  0.28172827  0.76944944  0.55035382    -0.27000
O4193       O  0.28662482  0.71855411  0.54164696    -0.58900
H4194       H  0.30606704  0.72626504  0.58769562     0.15700
O4195       O  0.29396100  0.78932572  0.58630652    -0.60300
H4196       H  0.27539473  0.78165723  0.53982723     0.14200
H4197       H  0.29258291  0.74046154  0.43559735     0.46000
H4198       H  0.30185325  0.71489925  0.53552178     0.41400
H4199       H  0.27889917  0.79234569  0.59363796     0.44900
H4200       H  0.22685961  0.75688748  0.53418124     0.36300
C4201       C  0.44023745  0.74720819  0.57791290    -0.27900
C4202       C  0.45986920  0.75638267  0.58579030     0.01700
C4203       C  0.46015277  0.76725576  0.60937991     0.29800
C4204       C  0.44082788  0.76884909  0.62502557    -0.19700
C4205       C  0.42106115  0.75950647  0.61757003    -0.29100
C4206       C  0.42081924  0.74868875  0.59366628     0.43800
C4207       C  0.47967074  0.75573366  0.56835606     0.05000
O4208       O  0.47907622  0.77683278  0.61677583    -0.57600
H4209       H  0.44147482  0.77723815  0.64328772     0.17900
O4210       O  0.40172577  0.73974846  0.58533807    -0.64300
H4211       H  0.43995728  0.73904565  0.55941508     0.16400
C4212       C  0.49842122  0.74492217  0.57545104     0.28600
C4213       C  0.51770313  0.74567476  0.55942955    -0.25200
C4214       C  0.51859712  0.75736844  0.53647426    -0.24500
C4215       C  0.49954496  0.76817733  0.52953938     0.40100
C4216       C  0.48023460  0.76711527  0.54535288    -0.27000
O4217       O  0.49823082  0.73397303  0.59833565    -0.58900
H4218       H  0.53207804  0.73731601  0.56524952     0.15700
O4219       O  0.49935478  0.77955154  0.50709563    -0.60300
H4220       H  0.46577762  0.77554006  0.53999953     0.14200
H4221       H  0.39440200  0.74848667  0.57244036     0.46000
H4222       H  0.48980117  0.72260717  0.59318956     0.41400
H4223       H  0.50278958  0.79220994  0.51405214     0.44900
H4224       H  0.48653071  0.76885852  0.63057217     0.36300
C4225       C  0.21870882  0.74947244  0.87356860    -0.27900
C4226       C  0.21824817  0.75591335  0.84678810     0.01700
C4227       C  0.19770289  0.76029997  0.83431527     0.29800
C4228       C  0.17771165  0.75795659  0.84876464    -0.19700
C4229       C  0.17814062  0.75110953  0.87546644    -0.29100
C4230       C  0.19886905  0.74720599  0.88803174     0.43800
C4231       C  0.23927024  0.75638959  0.83148594     0.05000
O4232       O  0.19701058  0.76595827  0.80769493    -0.57600
H4233       H  0.16189071  0.76118108  0.83899856     0.17900
O4234       O  0.19995549  0.74143795  0.91458715    -0.64300
H4235       H  0.23454156  0.74610633  0.88321469     0.16400
C4236       C  0.24972813  0.77330918  0.82479396     0.28600
C4237       C  0.26965683  0.77313463  0.80979412    -0.25200
C4238       C  0.27896278  0.75616422  0.80092492    -0.24500
C4239       C  0.26866748  0.73921700  0.80855571     0.40100
C4240       C  0.24907780  0.73946278  0.82393922    -0.27000
O4241       O  0.24065639  0.78997779  0.83298500    -0.58900
H4242       H  0.27723423  0.78629105  0.80405117     0.15700
O4243       O  0.27768065  0.72233248  0.80118511    -0.60300
H4244       H  0.24120903  0.72637921  0.82951142     0.14200
H4245       H  0.20127553  0.75305665  0.92537648     0.46000
H4246       H  0.23250678  0.79485649  0.81691462     0.41400
H4247       H  0.26820312  0.71781955  0.78601237     0.44900
H4248       H  0.19372973  0.77952033  0.80830725     0.36300
C4249       C  0.40537154  0.74479439  0.86577270    -0.27900
C4250       C  0.40421569  0.76135866  0.88083841     0.01700
C4251       C  0.39513849  0.77747097  0.86863817     0.29800
C4252       C  0.38741326  0.77687461  0.84180658    -0.19700
C4253       C  0.38863217  0.76033170  0.82655504    -0.29100
C4254       C  0.39786960  0.74420960  0.83881403     0.43800
C4255       C  0.41267400  0.76176460  0.90917318     0.05000
O4256       O  0.39356372  0.79385524  0.88286412    -0.57600
H4257       H  0.38052632  0.78946734  0.83286695     0.17900
O4258       O  0.39891167  0.72762153  0.82503158    -0.64300
H4259       H  0.41232905  0.73228474  0.87488365     0.16400
C4260       C  0.40407267  0.74962073  0.92907437     0.28600
C4261       C  0.41207784  0.75043492  0.95575692    -0.25200
C4262       C  0.42897089  0.76313727  0.96323082    -0.24500
C4263       C  0.43797287  0.77498723  0.94292633     0.40100
C4264       C  0.42960124  0.77436612  0.91635202    -0.27000
O4265       O  0.38769943  0.73695705  0.92270902    -0.58900
H4266       H  0.40486934  0.74106109  0.97065330     0.15700
O4267       O  0.45494748  0.78724220  0.94864792    -0.60300
H4268       H  0.43662200  0.78360273  0.90112648     0.14200
H4269       H  0.41446615  0.72685130  0.81799140     0.46000
H4270       H  0.37334323  0.74370474  0.92535747     0.41400
H4271       H  0.46892806  0.78064396  0.94340635     0.44900
H4272       H  0.37910467  0.79309015  0.89274485     0.36300
C4273       C  0.37707029  0.39737707  0.52188575    -0.27900
C4274       C  0.39913173  0.39270283  0.52963451     0.01700
C4275       C  0.41341538  0.40704070  0.53865641     0.29800
C4276       C  0.40536146  0.42526278  0.54119126    -0.19700
C4277       C  0.38288115  0.42973579  0.53543989    -0.29100
C4278       C  0.36887592  0.41570265  0.52484467     0.43800
C4279       C  0.40656415  0.37281267  0.53141638     0.05000
O4280       O  0.43494187  0.40322519  0.54678046    -0.57600
H4281       H  0.41656022  0.43579663  0.54918708     0.17900
O4282       O  0.34687374  0.41942090  0.51882111    -0.64300
H4283       H  0.36586351  0.38661834  0.51461349     0.16400
C4284       C  0.39403819  0.35975266  0.54651782     0.28600
C4285       C  0.40292488  0.34206686  0.55208952    -0.25200
C4286       C  0.42451420  0.33699452  0.54327501    -0.24500
C4287       C  0.43673642  0.34974026  0.52725234     0.40100
C4288       C  0.42762431  0.36735740  0.52115913    -0.27000
O4289       O  0.37355605  0.36444126  0.55721236    -0.58900
H4290       H  0.39307947  0.33245791  0.56419982     0.15700
O4291       O  0.45803274  0.34557735  0.51867520    -0.60300
H4292       H  0.43750554  0.37712392  0.50937967     0.14200
H4293       H  0.33867655  0.41785132  0.53620499     0.46000
H4294       H  0.37668016  0.36845616  0.57609822     0.41400
H4295       H  0.46800471  0.34984304  0.53353039     0.44900
H4296       H  0.43374808  0.39977182  0.56624326     0.36300
C4297       C  0.24767088  0.50109703  0.78408000    -0.27900
C4298       C  0.27102277  0.50389081  0.78282103     0.01700
C4299       C  0.28270304  0.50763319  0.80705509     0.29800
C4300       C  0.27112001  0.50888683  0.83168498    -0.19700
C4301       C  0.24779652  0.50618727  0.83299794    -0.29100
C4302       C  0.23607783  0.50216724  0.80888199     0.43800
C4303       C  0.28299693  0.50318180  0.75621240     0.05000
O4304       O  0.30551250  0.51001113  0.80695406    -0.57600
H4305       H  0.28055580  0.51180868  0.84998611     0.17900
O4306       O  0.21328008  0.49976096  0.80913992    -0.64300
H4307       H  0.23829135  0.49845234  0.76566117     0.16400
C4308       C  0.27996457  0.48816027  0.73821821     0.28600
C4309       C  0.29078323  0.48807874  0.71296941    -0.25200
C4310       C  0.30510185  0.50274778  0.70500292    -0.24500
C4311       C  0.30860792  0.51755552  0.72340345     0.40100
C4312       C  0.29747506  0.51774122  0.74854791    -0.27000
O4313       O  0.26645798  0.47341823  0.74509239    -0.58900
H4314       H  0.28785343  0.47637618  0.69955245     0.15700
O4315       O  0.32205316  0.53235093  0.71664657    -0.60300
H4316       H  0.29986841  0.52954985  0.76192557     0.14200
H4317       H  0.20689790  0.51254851  0.80861422     0.46000
H4318       H  0.27638868  0.46451039  0.75477657     0.41400
H4319       H  0.33648694  0.52994742  0.72602430     0.44900
H4320       H  0.31182949  0.49753124  0.81119000     0.36300
C4321       C  0.45221852  0.52341053  0.69185371    -0.27900
C4322       C  0.46831464  0.50937276  0.68834779     0.01700
C4323       C  0.46442902  0.49487177  0.66992170     0.29800
C4324       C  0.44413334  0.49396001  0.65621011    -0.19700
C4325       C  0.42739079  0.50756376  0.66026975    -0.29100
C4326       C  0.43180430  0.52261521  0.67796961     0.43800
C4327       C  0.48805006  0.50867234  0.70602234     0.05000
O4328       O  0.48020262  0.48121319  0.66575806    -0.57600
H4329       H  0.44155898  0.48236274  0.64250018     0.17900
O4330       O  0.41638875  0.53653272  0.68206132    -0.64300
H4331       H  0.45515066  0.53462532  0.70613507     0.16400
C4332       C  0.50421960  0.52283186  0.70572501     0.28600
C4333       C  0.52268735  0.52160808  0.72305744    -0.25200
C4334       C  0.52510063  0.50643566  0.74110228    -0.24500
C4335       C  0.50888420  0.49208050  0.74080139     0.40100
C4336       C  0.49053431  0.49339039  0.72347850    -0.27000
O4337       O  0.50237287  0.53762667  0.68813788    -0.58900
H4338       H  0.53489947  0.53276845  0.72262332     0.15700
O4339       O  0.51043385  0.47686156  0.75764295    -0.60300
H4340       H  0.47801981  0.48244407  0.72380070     0.14200
H4341       H  0.40775811  0.53261954  0.69831640     0.46000
H4342       H  0.49590240  0.54792516  0.69906441     0.41400
H4343       H  0.51849091  0.46725512  0.74692233     0.44900
H4344       H  0.49008306  0.48614979  0.65123123     0.36300
C4345       C  0.19523466  0.49026610  0.44994633    -0.27900
C4346       C  0.20695652  0.50682694  0.45471416     0.01700
C4347       C  0.19837236  0.52384433  0.44507047     0.29800
C4348       C  0.17840172  0.52412817  0.43040254    -0.19700
C4349       C  0.16657434  0.50756386  0.42520822    -0.29100
C4350       C  0.17500706  0.49053123  0.43558152     0.43800
C4351       C  0.22771672  0.50647173  0.47074848     0.05000
O4352       O  0.20997656  0.54014908  0.44887574    -0.57600
H4353       H  0.17240515  0.53738837  0.42264474     0.17900
O4354       O  0.16428495  0.47397034  0.43076151    -0.64300
H4355       H  0.20173338  0.47711918  0.45752764     0.16400
C4356       C  0.22854287  0.51574307  0.49576356     0.28600
C4357       C  0.24853352  0.51638186  0.51022585    -0.25200
C4358       C  0.26796080  0.50751077  0.50039732    -0.24500
C4359       C  0.26696639  0.49778341  0.47553976     0.40100
C4360       C  0.24684210  0.49729197  0.46089818    -0.27000
O4361       O  0.20979372  0.52417569  0.50628346    -0.58900
H4362       H  0.24861645  0.52357895  0.52955339     0.15700
O4363       O  0.28548214  0.48886638  0.46529289    -0.60300
H4364       H  0.24624156  0.49002750  0.44163548     0.14200
H4365       H  0.15602599  0.47115438  0.44777024     0.46000
H4366       H  0.20281110  0.51463458  0.51817956     0.41400
H4367       H  0.29286212  0.49817834  0.45336471     0.44900
H4368       H  0.20146316  0.54711435  0.46289550     0.36300
C4369       C  0.40562693  0.49096415  0.36150138    -0.27900
C4370       C  0.40203040  0.50757286  0.37600791     0.01700
C4371       C  0.40615709  0.52474270  0.36290200     0.29800
C4372       C  0.41399730  0.52513598  0.33600639    -0.19700
C4373       C  0.41812255  0.50853441  0.32169763    -0.29100
C4374       C  0.41372243  0.49133950  0.33468653     0.43800
C4375       C  0.39445822  0.50692295  0.40492188     0.05000
O4376       O  0.40257681  0.54125480  0.37625581    -0.57600
H4377       H  0.41722739  0.53849820  0.32645524     0.17900
O4378       O  0.41648624  0.47483309  0.32101767    -0.64300
H4379       H  0.40247640  0.47762550  0.37114846     0.16400
C4380       C  0.37421144  0.49825932  0.41248419     0.28600
C4381       C  0.36725499  0.49825233  0.43979563    -0.25200
C4382       C  0.38037604  0.50657978  0.46024373    -0.24500
C4383       C  0.40099320  0.51482175  0.45257340     0.40100
C4384       C  0.40769539  0.51507670  0.42522983    -0.27000
O4385       O  0.36064242  0.49043582  0.39314326    -0.58900
H4386       H  0.35136447  0.49184495  0.44488325     0.15700
O4387       O  0.41492526  0.52256977  0.47158731    -0.60300
H4388       H  0.42351014  0.52152338  0.41987394     0.14200
H4389       H  0.43178584  0.47049694  0.32576902     0.46000
H4390       H  0.36306892  0.47678457  0.39476879     0.41400
H4391       H  0.42464057  0.51217057  0.47785665     0.44900
H4392       H  0.38713983  0.54508154  0.37123217     0.36300
C4393       C  0.30392130  0.61521731  0.62251503    -0.27900
C4394       C  0.31517743  0.62164846  0.64568692     0.01700
C4395       C  0.32677043  0.60866099  0.66200909     0.29800
C4396       C  0.32785452  0.58983487  0.65438901    -0.19700
C4397       C  0.31733802  0.58339135  0.63054296    -0.29100
C4398       C  0.30463177  0.59631266  0.61510055     0.43800
C4399       C  0.31526084  0.64192449  0.65238699     0.05000
O4400       O  0.33760927  0.61428912  0.68515091    -0.57600
H4401       H  0.33743763  0.58033564  0.66700652     0.17900
O4402       O  0.29339707  0.59084617  0.59218987    -0.64300
H4403       H  0.29452987  0.62493203  0.61002740     0.16400
C4404       C  0.32324607  0.65524353  0.63366817     0.28600
C4405       C  0.32504271  0.67402726  0.64122989    -0.25200
C4406       C  0.31864405  0.68006394  0.66730934    -0.24500
C4407       C  0.30954838  0.66681356  0.68554201     0.40100
C4408       C  0.30813580  0.64797248  0.67808673    -0.27000
O4409       O  0.33061172  0.64987015  0.60846941    -0.58900
H4410       H  0.33191937  0.68382997  0.62667963     0.15700
O4411       O  0.30301080  0.67185070  0.71120625    -0.60300
H4412       H  0.30167647  0.63796287  0.69261718     0.14200
H4413       H  0.27804865  0.58773359  0.59847270     0.46000
H4414       H  0.31845670  0.65350699  0.59576572     0.41400
H4415       H  0.28690750  0.67512547  0.70954360     0.44900
H4416       H  0.35240062  0.61893156  0.67895184     0.36300
loop_ 
_geom_bond_atom_site_label_1 
_geom_bond_atom_site_label_2 
_geom_bond_distance 
_geom_bond_site_symmetry_2 
_ccdc_geom_bond_type 
Zr1           O2   2.440       .  S
Zr1           O3   2.462       .  S
Zr1           O4   2.445       .  S
Zr1           O7   2.435       .  S
Zr1           O9   2.376       .  S
Zr1          O10   2.386       .  S
Zr1          O11   2.415       .  S
Zr1          O12   2.409       .  S
O2           H58   0.990       .  S
O2           H66   0.990       .  S
O3           C23   1.288       .  A
O4           C25   1.285       .  A
O5          Zr15   2.394       .  S
O5           C24   1.278       .  A
O6          Zr14   2.446       .  S
O6           C25   1.286       .  A
O7           C24   1.284       .  A
O8          Zr16   2.406       .  S
O8           C23   1.279       .  A
O9          Zr14   2.394       .  S
O9          Zr16   2.392       .  S
O10         Zr15   2.390       .  S
O10         Zr16   2.374       .  S
O10          H45   0.965       .  S
O11         Zr14   2.389       .  S
O11         Zr31   2.405       .  S
O11          H48   0.965       .  S
O12         Zr15   2.383       .  S
O12         Zr31   2.396       .  S
Zr13         O38   2.439       .  S
Zr13         O32   2.447       .  S
Zr13         O40   2.469       .  S
Zr13         O28   2.439       .  S
Zr13         O19   2.405       .  S
Zr13         O20   2.414       .  S
Zr13         O21   2.389       .  S
Zr13         O22   2.380       .  S
Zr14         O33   2.436       .  S
Zr14         O26   2.435       .  S
Zr14         O27   2.408       .  S
Zr14         O20   2.406       .  S
Zr14         O21   2.398       .  S
Zr15         O17   2.435       .  S
Zr15         O39   2.438       .  S
Zr15         O41   2.400       .  S
Zr15         O19   2.385       .  S
Zr15         O22   2.388       .  S
Zr16         O42   2.436       .  S
Zr16         O43   2.436       .  S
Zr16         O18   2.436       .  S
Zr16         O19   2.393       .  S
Zr16         O20   2.385       .  S
O17          H54   0.990       .  S
O18          H49   0.991       .  S
O18          H63   0.990       .  S
O20          H46   0.965       .  S
O21         Zr31   2.372       .  S
O22         Zr31   2.371       .  S
O22          H47   0.967       .  S
C23        C4310   1.496       .  S
C24        C4325   1.479       .  S
C25        C4397   1.499       .  S
O26          H62   0.990       .  S
O27          C29   1.282       .  A
O28          C29   1.286       .  A
C29        C4358   1.477       .  S
O30         Zr31   2.438       .  S
O30          H59   0.990       .  S
Zr31         O34   2.437       .  S
Zr31         O35   2.438       .  S
Zr31         O36   2.442       .  S
O32          C37   1.287       .  A
O33          H50   0.990       .  S
O33          H65   0.990       .  S
O34          H51   0.990       .  S
O35          H55   0.990       .  S
O35          H64   0.990       .  S
O36          C37   1.286       .  A
C37        C4382   1.500       .  S
O38          H57   0.990       .  S
O38          H61   0.990       .  S
O39          H53   0.990       .  S
O39          H60   0.990       .  S
O40          C44   1.290       .  A
O41          C44   1.279       .  A
O42          H52   0.990       .  S
O43          H56   0.990       .  S
C44        C4277   1.488       .  S
Zr67         O68   2.442       .  S
Zr67         O69   2.442       .  S
Zr67         O70   2.438       .  S
Zr67         O73   2.427       .  S
Zr67         O75   2.372       .  S
Zr67         O76   2.385       .  S
Zr67         O77   2.408       .  S
Zr67         O78   2.404       .  S
O68         H124   0.991       .  S
O68         H132   0.990       .  S
O69          C89   1.285       .  A
O70          C91   1.284       .  A
O71         Zr81   2.402       .  S
O71          C90   1.280       .  A
O72         Zr80   2.431       .  S
O72          C91   1.284       .  A
O73          C90   1.283       .  A
O74         Zr82   2.419       .  S
O74          C89   1.281       .  A
O75         Zr80   2.390       .  S
O75         Zr82   2.383       .  S
O76         Zr81   2.392       .  S
O76         Zr82   2.375       .  S
O76         H111   0.967       .  S
O77         Zr80   2.394       .  S
O77         Zr97   2.398       .  S
O77         H114   0.967       .  S
O78         Zr81   2.390       .  S
O78         Zr97   2.396       .  S
Zr79        O104   2.441       .  S
Zr79         O98   2.433       .  S
Zr79        O106   2.453       .  S
Zr79         O94   2.439       .  S
Zr79         O85   2.407       .  S
Zr79         O86   2.408       .  S
Zr79         O87   2.385       .  S
Zr79         O88   2.380       .  S
Zr80         O99   2.436       .  S
Zr80         O92   2.435       .  S
Zr80         O93   2.406       .  S
Zr80         O86   2.401       .  S
Zr80         O87   2.391       .  S
Zr81         O83   2.435       .  S
Zr81        O105   2.437       .  S
Zr81        O107   2.405       .  S
Zr81         O85   2.388       .  S
Zr81         O88   2.387       .  S
Zr82        O108   2.436       .  S
Zr82        O109   2.435       .  S
Zr82         O84   2.438       .  S
Zr82         O85   2.401       .  S
Zr82         O86   2.389       .  S
O83         H120   0.991       .  S
O84         H115   0.990       .  S
O84         H129   0.990       .  S
O86         H112   0.965       .  S
O87         Zr97   2.375       .  S
O88         Zr97   2.373       .  S
O88         H113   0.966       .  S
C89        C4190   1.485       .  S
C90        C4205   1.472       .  S
C91        C4406   1.492       .  S
O92         H128   0.990       .  S
O93          C95   1.281       .  A
O94          C95   1.287       .  A
C95        C4238   1.473       .  S
O96         Zr97   2.440       .  S
O96         H125   0.991       .  S
Zr97        O100   2.437       .  S
Zr97        O101   2.439       .  S
Zr97        O102   2.431       .  S
O98         C103   1.285       .  A
O99         H116   0.990       .  S
O99         H131   0.990       .  S
O100        H117   0.990       .  S
O101        H121   0.990       .  S
O101        H130   0.990       .  S
O102        C103   1.283       .  A
C103       C4253   1.487       .  S
O104        H123   0.990       .  S
O104        H127   0.990       .  S
O105        H119   0.990       .  S
O105        H126   0.990       .  S
O106        C110   1.287       .  A
O107        C110   1.280       .  A
O108        H118   0.990       .  S
O109        H122   0.990       .  S
C110       C4166   1.486       .  S
Zr133       O134   2.440       .  S
Zr133       O135   2.472       .  S
Zr133       O136   2.449       .  S
Zr133       O139   2.426       .  S
Zr133       O141   2.373       .  S
Zr133       O142   2.382       .  S
Zr133       O143   2.416       .  S
Zr133       O144   2.416       .  S
O134        H190   0.990       .  S
O134        H198   0.990       .  S
O135        C155   1.291       .  A
O136        C157   1.285       .  A
O137       Zr147   2.413       .  S
O137        C156   1.282       .  A
O138       Zr146   2.432       .  S
O138        C157   1.284       .  A
O139        C156   1.283       .  A
O140       Zr148   2.407       .  S
O140        C155   1.279       .  A
O141       Zr146   2.392       .  S
O141       Zr148   2.385       .  S
O142       Zr147   2.394       .  S
O142       Zr148   2.376       .  S
O142        H177   0.966       .  S
O143       Zr146   2.392       .  S
O143       Zr163   2.404       .  S
O143        H180   0.966       .  S
O144       Zr147   2.391       .  S
O144       Zr163   2.407       .  S
Zr145       O170   2.444       .  S
Zr145       O164   2.434       .  S
Zr145       O172   2.447       .  S
Zr145       O160   2.435       .  S
Zr145       O151   2.400       .  S
Zr145       O152   2.406       .  S
Zr145       O153   2.387       .  S
Zr145       O154   2.379       .  S
Zr146       O165   2.438       .  S
Zr146       O158   2.436       .  S
Zr146       O159   2.401       .  S
Zr146       O152   2.397       .  S
Zr146       O153   2.393       .  S
Zr147       O149   2.435       .  S
Zr147       O171   2.436       .  S
Zr147       O173   2.422       .  S
Zr147       O151   2.387       .  S
Zr147       O154   2.381       .  S
Zr148       O174   2.435       .  S
Zr148       O175   2.437       .  S
Zr148       O150   2.437       .  S
Zr148       O151   2.393       .  S
Zr148       O152   2.385       .  S
O149        H186   0.990       .  S
O150        H181   0.990       .  S
O150        H195   0.990       .  S
O152        H178   0.966       .  S
O153       Zr163   2.368       .  S
O154       Zr163   2.370       .  S
O154        H179   0.966       .  S
C155       C4061   1.501       .  S
C156       C4094   1.477       .  S
C157       C4133   1.493       .  S
O158        H194   0.990       .  S
O159        C161   1.281       .  A
O160        C161   1.285       .  A
C161       C4109   1.473       .  S
O162       Zr163   2.439       .  S
O162        H191   0.991       .  S
Zr163       O166   2.439       .  S
Zr163       O167   2.439       .  S
Zr163       O168   2.450       .  S
O164        C169   1.285       .  A
O165        H182   0.990       .  S
O165        H197   0.990       .  S
O166        H183   0.990       .  S
O167        H187   0.990       .  S
O167        H196   0.990       .  S
O168        C169   1.287       .  A
C169       C4373   1.489       .  S
O170        H189   0.990       .  S
O170        H193   0.990       .  S
O171        H185   0.990       .  S
O171        H192   0.990       .  S
O172        C176   1.288       .  A
O173        C176   1.284       .  A
O174        H184   0.990       .  S
O175        H188   0.990       .  S
C176       C4037   1.487       .  S
Zr199       O200   2.439       .  S
Zr199       O201   2.434       .  S
Zr199       O202   2.444       .  S
Zr199       O205   2.423       .  S
Zr199       O207   2.373       .  S
Zr199       O208   2.389       .  S
Zr199       O209   2.408       .  S
Zr199       O210   2.403       .  S
O200        H256   0.990       .  S
O200        H264   0.990       .  S
O201        C221   1.283       .  A
O202        C223   1.284       .  A
O203       Zr213   2.426       .  S
O203        C222   1.284       .  A
O204       Zr212   2.443       .  S
O204        C223   1.285       .  A
O205        C222   1.282       .  A
O206       Zr214   2.406       .  S
O206        C221   1.278       .  A
O207       Zr212   2.384       .  S
O207       Zr214   2.385       .  S
O208       Zr213   2.394       .  S
O208       Zr214   2.384       .  S
O208        H243   0.965       .  S
O209       Zr212   2.391       .  S
O209       Zr229   2.404       .  S
O209        H246   0.966       .  S
O210       Zr213   2.388       .  S
O210       Zr229   2.390       .  S
Zr211       O236   2.441       .  S
Zr211       O230   2.424   1_554  S
Zr211       O238   2.455       .  S
Zr211       O226   2.446       .  S
Zr211       O217   2.401       .  S
Zr211       O218   2.407       .  S
Zr211       O219   2.389       .  S
Zr211       O220   2.382       .  S
Zr212       O231   2.438       .  S
Zr212       O224   2.435       .  S
Zr212       O225   2.394       .  S
Zr212       O218   2.405       .  S
Zr212       O219   2.393       .  S
Zr213       O215   2.436       .  S
Zr213       O237   2.436       .  S
Zr213       O239   2.433       .  S
Zr213       O217   2.389       .  S
Zr213       O220   2.390       .  S
Zr214       O240   2.435       .  S
Zr214       O241   2.436       .  S
Zr214       O216   2.438       .  S
Zr214       O217   2.398       .  S
Zr214       O218   2.387       .  S
O215        H252   0.990       .  S
O216        H247   0.990       .  S
O216        H261   0.989       .  S
O218        H244   0.967       .  S
O219       Zr229   2.367       .  S
O220       Zr229   2.370       .  S
O220        H245   0.966       .  S
C221       C3974   1.482       .  S
C222       C4013   1.482       .  S
C223       C4142   1.498       .  S
O224        H260   0.990       .  S
O225        C227   1.279       .  A
O226        C227   1.287       .  A
C227       C3989   1.473   1_554  S
O228       Zr229   2.438       .  S
O228        H257   0.991       .  S
Zr229       O232   2.436       .  S
Zr229       O233   2.439       .  S
Zr229       O234   2.437       .  S
O230        C235   1.283       .  A
O231        H248   0.990       .  S
O231        H263   0.990       .  S
O232        H249   0.990       .  S
O233        H253   0.990       .  S
O233        H262   0.990       .  S
O234        C235   1.286   1_554  A
C235       C4262   1.493       .  S
O236        H255   0.991       .  S
O236        H259   0.990       .  S
O237        H251   0.990       .  S
O237        H258   0.990       .  S
O238        C242   1.289       .  A
O239        C242   1.285       .  A
O240        H250   0.990       .  S
O241        H254   0.990       .  S
C242       C3941   1.495       .  S
Zr265       O266   2.438       .  S
Zr265       O267   2.423       .  S
Zr265       O268   2.471       .  S
Zr265       O271   2.431       .  S
Zr265       O273   2.374       .  S
Zr265       O274   2.397       .  S
Zr265       O275   2.401       .  S
Zr265       O276   2.398       .  S
O266        H322   0.990       .  S
O266        H330   0.990       .  S
O267        C287   1.282       .  A
O268        C289   1.290       .  A
O269       Zr279   2.410       .  S
O269        C288   1.282       .  A
O270       Zr278   2.406       .  S
O270        C289   1.281       .  A
O271        C288   1.285       .  A
O272       Zr280   2.433       .  S
O272        C287   1.284       .  A
O273       Zr278   2.389       .  S
O273       Zr280   2.378       .  S
O274       Zr279   2.397       .  S
O274       Zr280   2.373       .  S
O274        H309   0.966       .  S
O275       Zr278   2.394       .  S
O275       Zr295   2.402       .  S
O275        H312   0.965       .  S
O276       Zr279   2.394       .  S
O276       Zr295   2.377       .  S
Zr277       O302   2.436       .  S
Zr277       O296   2.446       .  S
Zr277       O304   2.429       .  S
Zr277       O292   2.434       .  S
Zr277       O283   2.408       .  S
Zr277       O284   2.409       .  S
Zr277       O285   2.376       .  S
Zr277       O286   2.379       .  S
Zr278       O297   2.436       .  S
Zr278       O290   2.434       .  S
Zr278       O291   2.410       .  S
Zr278       O284   2.390       .  S
Zr278       O285   2.390       .  S
Zr279       O281   2.436       .  S
Zr279       O303   2.439       .  S
Zr279       O305   2.440       .  S
Zr279       O283   2.386       .  S
Zr279       O286   2.391       .  S
Zr280       O306   2.435       .  S
Zr280       O307   2.437       .  S
Zr280       O282   2.436       .  S
Zr280       O283   2.400       .  S
Zr280       O284   2.396       .  S
O281        H318   0.990       .  S
O282        H313   0.990       .  S
O282        H327   0.990       .  S
O284        H310   0.964       .  S
O285       Zr295   2.381       .  S
O286       Zr295   2.387       .  S
O286        H311   0.967       .  S
C287       C3893   1.482       .  S
C288       C3869   1.471       .  S
C289       C3821   1.495       .  S
O290        H326   0.990       .  S
O291        C293   1.281       .  A
O292        C293   1.283       .  A
C293       C4349   1.479       .  S
O294       Zr295   2.438       .  S
O294        H323   0.990       .  S
Zr295       O298   2.436       .  S
Zr295       O299   2.440       .  S
Zr295       O300   2.406       .  S
O296        C301   1.286       .  A
O297        H314   0.990       .  S
O297        H329   0.990       .  S
O298        H315   0.990       .  S
O299        H319   0.990       .  S
O299        H328   0.990       .  S
O300        C301   1.279       .  A
C301       C3854   1.480       .  S
O302        H321   0.990       .  S
O302        H325   0.990       .  S
O303        H317   0.990       .  S
O303        H324   0.990       .  S
O304        C308   1.282       .  A
O305        C308   1.286       .  A
O306        H316   0.990       .  S
O307        H320   0.990       .  S
C308       C3917   1.493       .  S
Zr331       O332   2.439       .  S
Zr331       O333   2.433       .  S
Zr331       O334   2.452       .  S
Zr331       O337   2.432       .  S
Zr331       O339   2.378       .  S
Zr331       O340   2.387       .  S
Zr331       O341   2.403       .  S
Zr331       O342   2.405       .  S
O332        H388   0.990       .  S
O332        H396   0.990       .  S
O333        C353   1.284       .  A
O334        C355   1.288       .  A
O335       Zr345   2.411       .  S
O335        C354   1.282       .  A
O336       Zr344   2.414       .  S
O336        C355   1.281       .  A
O337        C354   1.286       .  A
O338       Zr346   2.428       .  S
O338        C353   1.283       .  A
O339       Zr344   2.386       .  S
O339       Zr346   2.371       .  S
O340       Zr345   2.391       .  S
O340       Zr346   2.364       .  S
O340        H375   0.966       .  S
O341       Zr344   2.391       .  S
O341       Zr361   2.395       .  S
O341        H378   0.965       .  S
O342       Zr345   2.398       .  S
O342       Zr361   2.395       .  S
Zr343       O368   2.442       .  S
Zr343       O362   2.456       .  S
Zr343       O370   2.440       .  S
Zr343       O358   2.437       .  S
Zr343       O349   2.410       .  S
Zr343       O350   2.414       .  S
Zr343       O351   2.382       .  S
Zr343       O352   2.382       .  S
Zr344       O363   2.435       .  S
Zr344       O356   2.433       .  S
Zr344       O357   2.409       .  S
Zr344       O350   2.394       .  S
Zr344       O351   2.389       .  S
Zr345       O347   2.435       .  S
Zr345       O369   2.438       .  S
Zr345       O371   2.431       .  S
Zr345       O349   2.388       .  S
Zr345       O352   2.392       .  S
Zr346       O372   2.435       .  S
Zr346       O373   2.435       .  S
Zr346       O348   2.435       .  S
Zr346       O349   2.402       .  S
Zr346       O350   2.379       .  S
O347        H384   0.990       .  S
O348        H379   0.990       .  S
O348        H393   0.990       .  S
O350        H376   0.963       .  S
O351       Zr361   2.378       .  S
O352       Zr361   2.385       .  S
O352        H377   0.967       .  S
C353       C3806   1.487       .  S
C354       C3749   1.479       .  S
C355       C3710   1.488       .  S
O356        H392   0.990       .  S
O357        C359   1.281       .  A
O358        C359   1.285       .  A
C359       C3773   1.469       .  S
O360       Zr361   2.436       .  S
O360        H389   0.990       .  S
Zr361       O364   2.435       .  S
Zr361       O365   2.437       .  S
Zr361       O366   2.410       .  S
O362        C367   1.287       .  A
O363        H380   0.990       .  S
O363        H395   0.990       .  S
O364        H381   0.990       .  S
O365        H385   0.990       .  S
O365        H394   0.990       .  S
O366        C367   1.280       .  A
C367       C3725   1.491       .  S
O368        H387   0.990       .  S
O368        H391   0.991       .  S
O369        H383   0.990       .  S
O369        H390   0.990       .  S
O370        C374   1.285       .  A
O371        C374   1.283       .  A
O372        H382   0.991       .  S
O373        H386   0.990       .  S
C374       C3926   1.495       .  S
Zr397       O398   2.439   1_556  S
Zr397       O399   2.445   1_556  S
Zr397       O400   2.464   1_556  S
Zr397       O403   2.436   1_556  S
Zr397       O405   2.377       .  S
Zr397       O406   2.394       .  S
Zr397       O407   2.405       .  S
Zr397       O408   2.396       .  S
O398        H454   0.990       .  S
O398        H462   0.991       .  S
O399        C419   1.287       .  A
O400        C421   1.288   1_554  A
O401       Zr411   2.418       .  S
O401        C420   1.283   1_556  A
O402       Zr410   2.403       .  S
O402        C421   1.279       .  A
O403        C420   1.287       .  A
O404       Zr412   2.425   1_554  S
O404        C419   1.282       .  A
O405       Zr410   2.390       .  S
O405       Zr412   2.378       .  S
O406       Zr411   2.394       .  S
O406       Zr412   2.374       .  S
O406        H441   0.966   1_556  S
O407       Zr410   2.385       .  S
O407       Zr427   2.402       .  S
O407        H444   0.964       .  S
O408       Zr411   2.387       .  S
O408       Zr427   2.377       .  S
Zr409       O434   2.441       .  S
Zr409       O428   2.462       .  S
Zr409       O436   2.438       .  S
Zr409       O424   2.453       .  S
Zr409       O415   2.415       .  S
Zr409       O416   2.415       .  S
Zr409       O417   2.380       .  S
Zr409       O418   2.384       .  S
Zr410       O429   2.436       .  S
Zr410       O422   2.434       .  S
Zr410       O423   2.394       .  S
Zr410       O416   2.395       .  S
Zr410       O417   2.390       .  S
Zr411       O413   2.435       .  S
Zr411       O435   2.439   1_556  S
Zr411       O437   2.432       .  S
Zr411       O415   2.390       .  S
Zr411       O418   2.391       .  S
Zr412       O438   2.435   1_556  S
Zr412       O439   2.436       .  S
Zr412       O414   2.437       .  S
Zr412       O415   2.401       .  S
Zr412       O416   2.392       .  S
O413        H450   0.990       .  S
O414        H445   0.991   1_556  S
O414        H459   0.990       .  S
O416        H442   0.964       .  S
O417       Zr427   2.377       .  S
O418       Zr427   2.386       .  S
O418        H443   0.966       .  S
C419       C3902   1.497       .  S
C420       C4085   1.481       .  S
C421       C3629   1.492   1_556  S
O422        H458   0.991       .  S
O423        C425   1.277       .  A
O424        C425   1.288       .  A
C425       C3653   1.483       .  S
O426       Zr427   2.439       .  S
O426        H455   0.991       .  S
Zr427       O430   2.437       .  S
Zr427       O431   2.441       .  S
Zr427       O432   2.409       .  S
O428        C433   1.288       .  A
O429        H446   0.990       .  S
O429        H461   0.990       .  S
O430        H447   0.990       .  S
O431        H451   0.990       .  S
O431        H460   0.990       .  S
O432        C433   1.280       .  A
C433       C4301   1.485       .  S
O434        H453   0.990       .  S
O434        H457   0.990       .  S
O435        H449   0.990   1_554  S
O435        H456   0.990       .  S
O436        C440   1.284       .  A
O437        C440   1.284       .  A
O438        H448   0.991       .  S
O439        H452   0.990       .  S
C440       C3677   1.492       .  S
Zr463       O464   2.439       .  S
Zr463       O465   2.431       .  S
Zr463       O466   2.463       .  S
Zr463       O469   2.424       .  S
Zr463       O471   2.372       .  S
Zr463       O472   2.392       .  S
Zr463       O473   2.405       .  S
Zr463       O474   2.405       .  S
O464        H520   0.990       .  S
O464        H528   0.990       .  S
O465        C485   1.285       .  A
O466        C487   1.288       .  A
O467       Zr477   2.399       .  S
O467        C486   1.280       .  A
O468       Zr476   2.401       .  S
O468        C487   1.280       .  A
O469        C486   1.285       .  A
O470       Zr478   2.440       .  S
O470        C485   1.285       .  A
O471       Zr476   2.385       .  S
O471       Zr478   2.375       .  S
O472       Zr477   2.390       .  S
O472       Zr478   2.366       .  S
O472        H507   0.966       .  S
O473       Zr476   2.384       .  S
O473       Zr493   2.404       .  S
O473        H510   0.965       .  S
O474       Zr477   2.391       .  S
O474       Zr493   2.387       .  S
Zr475       O500   2.442       .  S
Zr475       O494   2.465       .  S
Zr475       O502   2.436       .  S
Zr475       O490   2.434       .  S
Zr475       O481   2.412       .  S
Zr475       O482   2.416       .  S
Zr475       O483   2.379       .  S
Zr475       O484   2.377       .  S
Zr476       O495   2.434       .  S
Zr476       O488   2.432       .  S
Zr476       O489   2.398       .  S
Zr476       O482   2.392       .  S
Zr476       O483   2.385       .  S
Zr477       O479   2.435       .  S
Zr477       O501   2.438       .  S
Zr477       O503   2.420       .  S
Zr477       O481   2.386       .  S
Zr477       O484   2.388       .  S
Zr478       O504   2.435       .  S
Zr478       O505   2.435       .  S
Zr478       O480   2.437       .  S
Zr478       O481   2.403       .  S
Zr478       O482   2.391       .  S
O479        H516   0.990       .  S
O480        H511   0.990       .  S
O480        H525   0.990       .  S
O482        H508   0.965       .  S
O483       Zr493   2.381       .  S
O484       Zr493   2.382       .  S
O484        H509   0.965       .  S
C485       C3797   1.497       .  S
C486       C3605   1.476       .  S
C487       C3542   1.493       .  S
O488        H524   0.990       .  S
O489        C491   1.278       .  A
O490        C491   1.284       .  A
C491       C3590   1.468       .  S
O492       Zr493   2.438       .  S
O492        H521   0.990       .  S
Zr493       O496   2.436       .  S
Zr493       O497   2.440       .  S
Zr493       O498   2.416       .  S
O494        C499   1.289       .  A
O495        H512   0.990       .  S
O495        H527   0.990       .  S
O496        H513   0.990       .  S
O497        H517   0.990       .  S
O497        H526   0.990       .  S
O498        C499   1.282       .  A
C499       C3557   1.494       .  S
O500        H519   0.990       .  S
O500        H523   0.991       .  S
O501        H515   0.990       .  S
O501        H522   0.990       .  S
O502        C506   1.284       .  A
O503        C506   1.281       .  A
O504        H514   0.990       .  S
O505        H518   0.990       .  S
C506       C3686   1.490       .  S
Zr529       O530   2.443       .  S
Zr529       O531   2.461       .  S
Zr529       O532   2.438       .  S
Zr529       O535   2.428       .  S
Zr529       O537   2.375       .  S
Zr529       O538   2.385       .  S
Zr529       O539   2.412       .  S
Zr529       O540   2.406       .  S
O530        H586   0.990       .  S
O530        H594   0.991       .  S
O531        C551   1.289       .  A
O532        C553   1.284       .  A
O533       Zr543   2.402       .  S
O533        C552   1.279       .  A
O534       Zr542   2.441       .  S
O534        C553   1.285       .  A
O535        C552   1.284       .  A
O536       Zr544   2.418       .  S
O536        C551   1.281       .  A
O537       Zr542   2.394       .  S
O537       Zr544   2.383       .  S
O538       Zr543   2.394       .  S
O538       Zr544   2.379       .  S
O538        H573   0.965       .  S
O539       Zr542   2.389       .  S
O539       Zr559   2.400       .  S
O539        H576   0.967       .  S
O540       Zr543   2.386       .  S
O540       Zr559   2.391       .  S
Zr541       O566   2.444       .  S
Zr541       O560   2.434       .  S
Zr541       O568   2.453       .  S
Zr541       O556   2.424       .  S
Zr541       O547   2.397       .  S
Zr541       O548   2.412       .  S
Zr541       O549   2.386       .  S
Zr541       O550   2.377       .  S
Zr542       O561   2.437       .  S
Zr542       O554   2.435       .  S
Zr542       O555   2.413       .  S
Zr542       O548   2.404       .  S
Zr542       O549   2.387       .  S
Zr543       O545   2.436       .  S
Zr543       O567   2.435       .  S
Zr543       O569   2.417       .  S
Zr543       O547   2.383       .  S
Zr543       O550   2.384       .  S
Zr544       O570   2.436       .  S
Zr544       O571   2.435       .  S
Zr544       O546   2.436       .  S
Zr544       O547   2.397       .  S
Zr544       O548   2.394       .  S
O545        H582   0.990       .  S
O546        H577   0.990       .  S
O546        H591   0.990       .  S
O548        H574   0.965       .  S
O549       Zr559   2.366       .  S
O550       Zr559   2.373       .  S
O550        H575   0.966       .  S
C551       C3566   1.495       .  S
C552       C3470   1.473       .  S
C553       C3518   1.493       .  S
O554        H590   0.990       .  S
O555        C557   1.283       .  A
O556        C557   1.283       .  A
C557       C3782   1.470       .  S
O558       Zr559   2.438       .  S
O558        H587   0.990       .  S
Zr559       O562   2.437       .  S
Zr559       O563   2.439       .  S
Zr559       O564   2.434       .  S
O560        C565   1.286       .  A
O561        H578   0.990       .  S
O561        H593   0.990       .  S
O562        H579   0.990       .  S
O563        H583   0.990       .  S
O563        H592   0.990       .  S
O564        C565   1.285       .  A
C565       C3485   1.492       .  S
O566        H585   0.990       .  S
O566        H589   0.990       .  S
O567        H581   0.990       .  S
O567        H588   0.990       .  S
O568        C572   1.288       .  A
O569        C572   1.282       .  A
O570        H580   0.991       .  S
O571        H584   0.990       .  S
C572       C4046   1.489       .  S
Zr595       O596   2.441       .  S
Zr595       O597   2.446       .  S
Zr595       O598   2.451       .  S
Zr595       O601   2.428       .  S
Zr595       O603   2.374       .  S
Zr595       O604   2.385   1_545  S
Zr595       O605   2.407       .  S
Zr595       O606   2.407       .  S
O596        H652   0.990       .  S
O596        H660   0.990       .  S
O597        C617   1.285       .  A
O598        C619   1.287       .  A
O599       Zr609   2.397       .  S
O599        C618   1.278   1_565  A
O600       Zr608   2.435       .  S
O600        C619   1.284       .  A
O601        C618   1.283       .  A
O602       Zr610   2.403       .  S
O602        C617   1.279   1_565  A
O603       Zr608   2.385       .  S
O603       Zr610   2.387   1_545  S
O604       Zr609   2.389       .  S
O604       Zr610   2.376       .  S
O604        H639   0.965       .  S
O605       Zr608   2.387       .  S
O605       Zr625   2.394       .  S
O605        H642   0.966       .  S
O606       Zr609   2.387   1_545  S
O606       Zr625   2.397       .  S
Zr607       O632   2.445       .  S
Zr607       O626   2.436   1_554  S
Zr607       O634   2.470       .  S
Zr607       O622   2.447   1_565  S
Zr607       O613   2.399       .  S
Zr607       O614   2.411       .  S
Zr607       O615   2.389   1_565  S
Zr607       O616   2.380       .  S
Zr608       O627   2.436       .  S
Zr608       O620   2.435       .  S
Zr608       O621   2.388       .  S
Zr608       O614   2.404   1_545  S
Zr608       O615   2.394       .  S
Zr609       O611   2.435       .  S
Zr609       O633   2.437       .  S
Zr609       O635   2.408       .  S
Zr609       O613   2.385       .  S
Zr609       O616   2.378       .  S
Zr610       O636   2.435       .  S
Zr610       O637   2.436       .  S
Zr610       O612   2.438       .  S
Zr610       O613   2.391       .  S
Zr610       O614   2.385       .  S
O611        H648   0.990       .  S
O612        H643   0.991       .  S
O612        H657   0.990   1_565  S
O614        H640   0.964       .  S
O615       Zr625   2.369       .  S
O616       Zr625   2.372   1_565  S
O616        H641   0.965       .  S
C617       C3365   1.483       .  S
C618       C3389   1.478       .  S
C619       C3509   1.498       .  S
O620        H656   0.990       .  S
O621        C623   1.279       .  A
O622        C623   1.288       .  A
C623       C3413   1.478   1_554  S
O624       Zr625   2.438       .  S
O624        H653   0.990       .  S
Zr625       O628   2.438       .  S
Zr625       O629   2.437       .  S
Zr625       O630   2.434       .  S
O626        C631   1.286   1_565  A
O627        H644   0.990       .  S
O627        H659   0.990       .  S
O628        H645   0.990       .  S
O629        H649   0.990       .  S
O629        H658   0.990       .  S
O630        C631   1.285   1_554  A
C631       C3437   1.492       .  S
O632        H651   0.990       .  S
O632        H655   0.990       .  S
O633        H647   0.990       .  S
O633        H654   0.990       .  S
O634        C638   1.291       .  A
O635        C638   1.282       .  A
O636        H646   0.990       .  S
O637        H650   0.990       .  S
C638       C3950   1.496       .  S
Zr661       O662   2.442       .  S
Zr661       O663   2.455       .  S
Zr661       O664   2.444       .  S
Zr661       O667   2.430       .  S
Zr661       O669   2.372       .  S
Zr661       O670   2.388       .  S
Zr661       O671   2.411       .  S
Zr661       O672   2.403       .  S
O662        H718   0.990       .  S
O662        H726   0.991       .  S
O663        C683   1.286       .  A
O664        C685   1.285       .  A
O665       Zr675   2.404       .  S
O665        C684   1.280       .  A
O666       Zr674   2.418       .  S
O666        C685   1.281       .  A
O667        C684   1.283       .  A
O668       Zr676   2.401       .  S
O668        C683   1.279       .  A
O669       Zr674   2.390       .  S
O669       Zr676   2.382       .  S
O670       Zr675   2.389       .  S
O670       Zr676   2.380       .  S
O670        H705   0.965       .  S
O671       Zr674   2.393       .  S
O671       Zr691   2.400       .  S
O671        H708   0.966       .  S
O672       Zr675   2.387       .  S
O672       Zr691   2.390       .  S
Zr673       O698   2.445       .  S
Zr673       O692   2.424       .  S
Zr673       O700   2.455       .  S
Zr673       O688   2.441       .  S
Zr673       O679   2.400       .  S
Zr673       O680   2.401       .  S
Zr673       O681   2.386       .  S
Zr673       O682   2.378       .  S
Zr674       O693   2.438       .  S
Zr674       O686   2.435       .  S
Zr674       O687   2.398       .  S
Zr674       O680   2.397       .  S
Zr674       O681   2.387       .  S
Zr675       O677   2.436       .  S
Zr675       O699   2.437       .  S
Zr675       O701   2.422       .  S
Zr675       O679   2.384       .  S
Zr675       O682   2.383       .  S
Zr676       O702   2.435       .  S
Zr676       O703   2.434       .  S
Zr676       O678   2.438       .  S
Zr676       O679   2.396       .  S
Zr676       O680   2.378       .  S
O677        H714   0.990       .  S
O678        H709   0.990       .  S
O678        H723   0.990       .  S
O680        H706   0.965       .  S
O681       Zr691   2.371       .  S
O682       Zr691   2.370       .  S
O682        H707   0.966       .  S
C683       C3302   1.487       .  S
C684       C3614   1.477       .  S
C685       C3350   1.489       .  S
O686        H722   0.990       .  S
O687        C689   1.280       .  A
O688        C689   1.286       .  A
C689       C3317   1.479       .  S
O690       Zr691   2.439       .  S
O690        H719   0.991       .  S
Zr691       O694   2.436       .  S
Zr691       O695   2.441       .  S
Zr691       O696   2.431       .  S
O692        C697   1.283       .  A
O693        H710   0.990       .  S
O693        H725   0.990       .  S
O694        H711   0.990       .  S
O695        H715   0.990       .  S
O695        H724   0.990       .  S
O696        C697   1.285       .  A
C697       C3494   1.491       .  S
O698        H717   0.990       .  S
O698        H721   0.990       .  S
O699        H713   0.990       .  S
O699        H720   0.990       .  S
O700        C704   1.288       .  A
O701        C704   1.284       .  A
O702        H712   0.990       .  S
O703        H716   0.990       .  S
C704       C4286   1.487       .  S
Zr727       O728   2.442       .  S
Zr727       O729   2.463       .  S
Zr727       O730   2.441       .  S
Zr727       O733   2.437       .  S
Zr727       O735   2.376       .  S
Zr727       O736   2.384   1_545  S
Zr727       O737   2.415       .  S
Zr727       O738   2.411       .  S
O728        H784   0.990       .  S
O728        H792   0.991       .  S
O729        C749   1.290       .  A
O730        C751   1.285       .  A
O731       Zr741   2.406       .  S
O731        C750   1.281   1_565  A
O732       Zr740   2.414       .  S
O732        C751   1.280       .  A
O733        C750   1.285       .  A
O734       Zr742   2.417       .  S
O734        C749   1.281   1_565  A
O735       Zr740   2.393       .  S
O735       Zr742   2.385   1_545  S
O736       Zr741   2.389       .  S
O736       Zr742   2.371       .  S
O736        H771   0.967       .  S
O737       Zr740   2.389       .  S
O737       Zr757   2.399       .  S
O737        H774   0.965       .  S
O738       Zr741   2.386   1_545  S
O738       Zr757   2.396       .  S
Zr739       O764   2.441       .  S
Zr739       O758   2.436       .  S
Zr739       O766   2.449       .  S
Zr739       O754   2.442       .  S
Zr739       O745   2.410       .  S
Zr739       O746   2.412       .  S
Zr739       O747   2.385   1_565  S
Zr739       O748   2.382       .  S
Zr740       O759   2.437       .  S
Zr740       O752   2.432       .  S
Zr740       O753   2.402       .  S
Zr740       O746   2.399   1_545  S
Zr740       O747   2.387       .  S
Zr741       O743   2.435       .  S
Zr741       O765   2.437       .  S
Zr741       O767   2.407       .  S
Zr741       O745   2.390       .  S
Zr741       O748   2.389       .  S
Zr742       O768   2.435       .  S
Zr742       O769   2.436       .  S
Zr742       O744   2.437       .  S
Zr742       O745   2.399       .  S
Zr742       O746   2.379       .  S
O743        H780   0.990       .  S
O744        H775   0.990       .  S
O744        H789   0.990       .  S
O746        H772   0.962       .  S
O747       Zr757   2.377       .  S
O748       Zr757   2.370   1_565  S
O748        H773   0.965       .  S
C749       C3230   1.501       .  S
C750       C3278   1.482       .  S
C751       C3341   1.486       .  S
O752        H788   0.989       .  S
O753        C755   1.280       .  A
O754        C755   1.286   1_565  A
C755       C3254   1.475       .  S
O756       Zr757   2.438       .  S
O756        H785   0.991       .  S
Zr757       O760   2.437       .  S
Zr757       O761   2.439       .  S
Zr757       O762   2.424       .  S
O758        C763   1.283   1_565  A
O759        H776   0.990       .  S
O759        H791   0.990       .  S
O760        H777   0.989       .  S
O761        H781   0.990       .  S
O761        H790   0.990       .  S
O762        C763   1.283       .  A
C763       C3446   1.494       .  S
O764        H783   0.991       .  S
O764        H787   0.990       .  S
O765        H779   0.990       .  S
O765        H786   0.990       .  S
O766        C770   1.286       .  A
O767        C770   1.280       .  A
O768        H778   0.990       .  S
O769        H782   0.991       .  S
C770       C4157   1.479       .  S
Zr793       O794   2.439       .  S
Zr793       O795   2.434       .  S
Zr793       O796   2.466       .  S
Zr793       O799   2.425       .  S
Zr793       O801   2.374       .  S
Zr793       O802   2.393   1_545  S
Zr793       O803   2.404       .  S
Zr793       O804   2.403       .  S
O794        H850   0.991       .  S
O794        H858   0.990       .  S
O795        C815   1.285       .  A
O796        C817   1.288       .  A
O797       Zr807   2.410       .  S
O797        C816   1.282   1_565  A
O798       Zr806   2.406       .  S
O798        C817   1.280       .  A
O799        C816   1.284       .  A
O800       Zr808   2.437       .  S
O800        C815   1.284   1_565  A
O801       Zr806   2.384       .  S
O801       Zr808   2.375   1_545  S
O802       Zr807   2.394       .  S
O802       Zr808   2.373       .  S
O802        H837   0.966       .  S
O803       Zr806   2.388       .  S
O803       Zr823   2.405       .  S
O803        H840   0.965       .  S
O804       Zr807   2.395   1_545  S
O804       Zr823   2.390       .  S
Zr805       O830   2.441       .  S
Zr805       O824   2.463   1_565  S
Zr805       O832   2.440       .  S
Zr805       O820   2.434   1_565  S
Zr805       O811   2.405       .  S
Zr805       O812   2.420   1_565  S
Zr805       O813   2.381   1_565  S
Zr805       O814   2.379   1_565  S
Zr806       O825   2.435       .  S
Zr806       O818   2.435       .  S
Zr806       O819   2.387       .  S
Zr806       O812   2.397       .  S
Zr806       O813   2.394       .  S
Zr807       O809   2.436       .  S
Zr807       O831   2.436       .  S
Zr807       O833   2.444       .  S
Zr807       O811   2.381       .  S
Zr807       O814   2.384   1_565  S
Zr808       O834   2.435       .  S
Zr808       O835   2.435       .  S
Zr808       O810   2.438       .  S
Zr808       O811   2.394       .  S
Zr808       O812   2.397   1_565  S
O809        H846   0.990       .  S
O810        H841   0.990       .  S
O810        H855   0.990   1_565  S
O812        H838   0.964       .  S
O813       Zr823   2.375       .  S
O814       Zr823   2.386       .  S
O814        H839   0.964   1_545  S
C815       C3182   1.495       .  S
C816       C3398   1.482       .  S
C817       C3125   1.489       .  S
O818        H854   0.990       .  S
O819        C821   1.277       .  A
O820        C821   1.283       .  A
C821       C3158   1.467       .  S
O822       Zr823   2.439       .  S
O822        H851   0.990       .  S
Zr823       O826   2.437       .  S
Zr823       O827   2.438       .  S
Zr823       O828   2.422       .  S
O824        C829   1.288       .  A
O825        H842   0.991       .  S
O825        H857   0.990       .  S
O826        H843   0.990       .  S
O827        H847   0.990       .  S
O827        H856   0.990       .  S
O828        C829   1.282       .  A
C829       C3221   1.489       .  S
O830        H849   0.990       .  S
O830        H853   0.990       .  S
O831        H845   0.990       .  S
O831        H852   0.990       .  S
O832        C836   1.285       .  A
O833        C836   1.287       .  A
O834        H844   0.990       .  S
O835        H848   0.990       .  S
C836       C3197   1.496       .  S
Zr859       O860   2.441       .  S
Zr859       O861   2.427       .  S
Zr859       O862   2.464       .  S
Zr859       O865   2.432       .  S
Zr859       O867   2.377       .  S
Zr859       O868   2.394       .  S
Zr859       O869   2.401       .  S
Zr859       O870   2.398       .  S
O860        H916   0.990       .  S
O860        H924   0.990       .  S
O861        C881   1.283       .  A
O862        C883   1.288       .  A
O863       Zr873   2.405       .  S
O863        C882   1.281       .  A
O864       Zr872   2.397       .  S
O864        C883   1.278       .  A
O865        C882   1.286       .  A
O866       Zr874   2.416       .  S
O866        C881   1.280       .  A
O867       Zr872   2.391       .  S
O867       Zr874   2.377       .  S
O868       Zr873   2.396       .  S
O868       Zr874   2.369       .  S
O868        H903   0.967       .  S
O869       Zr872   2.389       .  S
O869       Zr889   2.396       .  S
O869        H906   0.965       .  S
O870       Zr873   2.395       .  S
O870       Zr889   2.377       .  S
Zr871       O896   2.442       .  S
Zr871       O890   2.443       .  S
Zr871       O898   2.445       .  S
Zr871       O886   2.433       .  S
Zr871       O877   2.405       .  S
Zr871       O878   2.414       .  S
Zr871       O879   2.382       .  S
Zr871       O880   2.380       .  S
Zr872       O891   2.437       .  S
Zr872       O884   2.435       .  S
Zr872       O885   2.406       .  S
Zr872       O878   2.397       .  S
Zr872       O879   2.385       .  S
Zr873       O875   2.435       .  S
Zr873       O897   2.437       .  S
Zr873       O899   2.437       .  S
Zr873       O877   2.388       .  S
Zr873       O880   2.388       .  S
Zr874       O900   2.436       .  S
Zr874       O901   2.434       .  S
Zr874       O876   2.440       .  S
Zr874       O877   2.398       .  S
Zr874       O878   2.386       .  S
O875        H912   0.990       .  S
O876        H907   0.990       .  S
O876        H921   0.990       .  S
O878        H904   0.965       .  S
O879       Zr889   2.380       .  S
O880       Zr889   2.390       .  S
O880        H905   0.965       .  S
C881       C3110   1.482       .  S
C882       C4214   1.476       .  S
C883       C3062   1.486       .  S
O884        H920   0.991       .  S
O885        C887   1.279       .  A
O886        C887   1.284       .  A
C887       C3077   1.472       .  S
O888       Zr889   2.440       .  S
O888        H917   0.990       .  S
Zr889       O892   2.437       .  S
Zr889       O893   2.438       .  S
Zr889       O894   2.399       .  S
O890        C895   1.284       .  A
O891        H908   0.990       .  S
O891        H923   0.990       .  S
O892        H909   0.990       .  S
O893        H913   0.990       .  S
O893        H922   0.990       .  S
O894        C895   1.278       .  A
C895       C3965   1.473       .  S
O896        H915   0.990       .  S
O896        H919   0.990       .  S
O897        H911   0.990       .  S
O897        H918   0.990       .  S
O898        C902   1.286       .  A
O899        C902   1.284       .  A
O900        H910   0.990       .  S
O901        H914   0.990       .  S
C902       C3206   1.500       .  S
Zr925       O926   2.439   1_556  S
Zr925       O927   2.428   1_556  S
Zr925       O928   2.460       .  S
Zr925       O931   2.433   1_556  S
Zr925       O933   2.376       .  S
Zr925       O934   2.388   1_545  S
Zr925       O935   2.405       .  S
Zr925       O936   2.401       .  S
O926        H982   0.990       .  S
O926        H990   0.990       .  S
O927        C947   1.284       .  A
O928        C949   1.288       .  A
O929       Zr939   2.402   1_554  S
O929        C948   1.280   1_565  A
O930       Zr938   2.419       .  S
O930        C949   1.283       .  A
O931        C948   1.284       .  A
O932       Zr940   2.433   1_554  S
O932        C947   1.284   1_565  A
O933       Zr938   2.390       .  S
O933       Zr940   2.376   1_545  S
O934       Zr939   2.394       .  S
O934       Zr940   2.371       .  S
O934        H969   0.967   1_556  S
O935       Zr938   2.388       .  S
O935       Zr955   2.401       .  S
O935        H972   0.965       .  S
O936       Zr939   2.390   1_545  S
O936       Zr955   2.385       .  S
Zr937       O962   2.442       .  S
Zr937       O956   2.449       .  S
Zr937       O964   2.433       .  S
Zr937       O952   2.415       .  S
Zr937       O943   2.403       .  S
Zr937       O944   2.412       .  S
Zr937       O945   2.381   1_565  S
Zr937       O946   2.372       .  S
Zr938       O957   2.436       .  S
Zr938       O950   2.434       .  S
Zr938       O951   2.411       .  S
Zr938       O944   2.393   1_545  S
Zr938       O945   2.391       .  S
Zr939       O941   2.436       .  S
Zr939       O963   2.436   1_556  S
Zr939       O965   2.434       .  S
Zr939       O943   2.388       .  S
Zr939       O946   2.386       .  S
Zr940       O966   2.435   1_556  S
Zr940       O967   2.436       .  S
Zr940       O942   2.437       .  S
Zr940       O943   2.402       .  S
Zr940       O944   2.390       .  S
O941        H978   0.990       .  S
O942        H973   0.990       .  S
O942        H987   0.990   1_565  S
O944        H970   0.964       .  S
O945       Zr955   2.378       .  S
O946       Zr955   2.384   1_565  S
O946        H971   0.965       .  S
C947       C3173   1.486       .  S
C948       C3014   1.459       .  S
C949       C2966   1.499       .  S
O950        H986   0.990       .  S
O951        C953   1.281       .  A
O952        C953   1.280   1_565  A
C953       C3245   1.466       .  S
O954       Zr955   2.438       .  S
O954        H983   0.990       .  S
Zr955       O958   2.437       .  S
Zr955       O959   2.439       .  S
Zr955       O960   2.417       .  S
O956        C961   1.286   1_565  A
O957        H974   0.990       .  S
O957        H989   0.990       .  S
O958        H975   0.990       .  S
O959        H979   0.990       .  S
O959        H988   0.990       .  S
O960        C961   1.281       .  A
C961       C2981   1.492       .  S
O962        H981   0.990       .  S
O962        H985   0.990       .  S
O963        H977   0.990   1_554  S
O963        H984   0.990       .  S
O964        C968   1.284       .  A
O965        C968   1.284       .  A
O966        H976   0.990       .  S
O967        H980   0.990       .  S
C968       C3029   1.494       .  S
Zr991       O992   2.439       .  S
Zr991       O993   2.418       .  S
Zr991       O994   2.451       .  S
Zr991       O997   2.445       .  S
Zr991       O999   2.382       .  S
Zr991      O1000   2.390       .  S
Zr991      O1001   2.400       .  S
Zr991      O1002   2.397       .  S
O992       H1048   0.990       .  S
O992       H1056   0.991       .  S
O993       C1013   1.282       .  A
O994       C1015   1.288       .  A
O995      Zr1005   2.397       .  S
O995       C1014   1.279       .  A
O996      Zr1004   2.413       .  S
O996       C1015   1.282       .  A
O997       C1014   1.288       .  A
O998      Zr1006   2.427       .  S
O998       C1013   1.284       .  A
O999      Zr1004   2.384       .  S
O999      Zr1006   2.369       .  S
O1000     Zr1005   2.388       .  S
O1000     Zr1006   2.370       .  S
O1000      H1035   0.966       .  S
O1001     Zr1004   2.388       .  S
O1001     Zr1021   2.390       .  S
O1001      H1038   0.965       .  S
O1002     Zr1005   2.393       .  S
O1002     Zr1021   2.388       .  S
Zr1003     O1028   2.441       .  S
Zr1003     O1022   2.458       .  S
Zr1003     O1030   2.450       .  S
Zr1003     O1018   2.428       .  S
Zr1003     O1009   2.405       .  S
Zr1003     O1010   2.417       .  S
Zr1003     O1011   2.384       .  S
Zr1003     O1012   2.378       .  S
Zr1004     O1023   2.437       .  S
Zr1004     O1016   2.435       .  S
Zr1004     O1017   2.408       .  S
Zr1004     O1010   2.395       .  S
Zr1004     O1011   2.390       .  S
Zr1005     O1007   2.435       .  S
Zr1005     O1029   2.438       .  S
Zr1005     O1031   2.422       .  S
Zr1005     O1009   2.387       .  S
Zr1005     O1012   2.382       .  S
Zr1006     O1032   2.435       .  S
Zr1006     O1033   2.437       .  S
Zr1006     O1008   2.440       .  S
Zr1006     O1009   2.399       .  S
Zr1006     O1010   2.396       .  S
O1007      H1044   0.990       .  S
O1008      H1039   0.990       .  S
O1008      H1053   0.990       .  S
O1010      H1036   0.965       .  S
O1011     Zr1021   2.374       .  S
O1012     Zr1021   2.389       .  S
O1012      H1037   0.965       .  S
C1013      C3101   1.484       .  S
C1014      C2933   1.483       .  S
C1015      C2894   1.486       .  S
O1016      H1052   0.990       .  S
O1017      C1019   1.280       .  A
O1018      C1019   1.284       .  A
C1019      C3998   1.478       .  S
O1020     Zr1021   2.435       .  S
O1020      H1049   0.990       .  S
Zr1021     O1024   2.435       .  S
Zr1021     O1025   2.435       .  S
Zr1021     O1026   2.398       .  S
O1022      C1027   1.288       .  A
O1023      H1040   0.990       .  S
O1023      H1055   0.990       .  S
O1024      H1041   0.990       .  S
O1025      H1045   0.990       .  S
O1025      H1054   0.990       .  S
O1026      C1027   1.278       .  A
C1027      C2909   1.482       .  S
O1028      H1047   0.990       .  S
O1028      H1051   0.990       .  S
O1029      H1043   0.990       .  S
O1029      H1050   0.990       .  S
O1030      C1034   1.286       .  A
O1031      C1034   1.283       .  A
O1032      H1042   0.990       .  S
O1033      H1046   0.990       .  S
C1034      C3038   1.493       .  S
Zr1057     O1058   2.442       .  S
Zr1057     O1059   2.454       .  S
Zr1057     O1060   2.450       .  S
Zr1057     O1063   2.442       .  S
Zr1057     O1065   2.377       .  S
Zr1057     O1066   2.389       .  S
Zr1057     O1067   2.415       .  S
Zr1057     O1068   2.406       .  S
O1058      H1114   0.990       .  S
O1058      H1122   0.990       .  S
O1059      C1079   1.287       .  A
O1060      C1081   1.287       .  A
O1061     Zr1071   2.400       .  S
O1061      C1080   1.279       .  A
O1062     Zr1070   2.428       .  S
O1062      C1081   1.283       .  A
O1063      C1080   1.286       .  A
O1064     Zr1072   2.406       .  S
O1064      C1079   1.279       .  A
O1065     Zr1070   2.387       .  S
O1065     Zr1072   2.380       .  S
O1066     Zr1071   2.392       .  S
O1066     Zr1072   2.379       .  S
O1066      H1101   0.967       .  S
O1067     Zr1070   2.394       .  S
O1067     Zr1087   2.408       .  S
O1067      H1104   0.967       .  S
O1068     Zr1071   2.388       .  S
O1068     Zr1087   2.398       .  S
Zr1069     O1094   2.440       .  S
Zr1069     O1088   2.442       .  S
Zr1069     O1096   2.455       .  S
Zr1069     O1084   2.428       .  S
Zr1069     O1075   2.402       .  S
Zr1069     O1076   2.412       .  S
Zr1069     O1077   2.386       .  S
Zr1069     O1078   2.372       .  S
Zr1070     O1089   2.436       .  S
Zr1070     O1082   2.437       .  S
Zr1070     O1083   2.403       .  S
Zr1070     O1076   2.402       .  S
Zr1070     O1077   2.392       .  S
Zr1071     O1073   2.435       .  S
Zr1071     O1095   2.437       .  S
Zr1071     O1097   2.413       .  S
Zr1071     O1075   2.386       .  S
Zr1071     O1078   2.384       .  S
Zr1072     O1098   2.434       .  S
Zr1072     O1099   2.436       .  S
Zr1072     O1074   2.440       .  S
Zr1072     O1075   2.397       .  S
Zr1072     O1076   2.385       .  S
O1073      H1110   0.990       .  S
O1074      H1105   0.990       .  S
O1074      H1119   0.990       .  S
O1076      H1102   0.966       .  S
O1077     Zr1087   2.368       .  S
O1078     Zr1087   2.373       .  S
O1078      H1103   0.966       .  S
C1079      C2918   1.487       .  S
C1080      C2813   1.479       .  S
C1081      C2861   1.497       .  S
O1082      H1118   0.990       .  S
O1083      C1085   1.280       .  A
O1084      C1085   1.284       .  A
C1085      C3086   1.469       .  S
O1086     Zr1087   2.438       .  S
O1086      H1115   0.990       .  S
Zr1087     O1090   2.436       .  S
Zr1087     O1091   2.439       .  S
Zr1087     O1092   2.447       .  S
O1088      C1093   1.286       .  A
O1089      H1106   0.990       .  S
O1089      H1121   0.990       .  S
O1090      H1107   0.990       .  S
O1091      H1111   0.990       .  S
O1091      H1120   0.990       .  S
O1092      C1093   1.287       .  A
C1093      C2837   1.499       .  S
O1094      H1113   0.990       .  S
O1094      H1117   0.990       .  S
O1095      H1109   0.990       .  S
O1095      H1116   0.990       .  S
O1096      C1100   1.289       .  A
O1097      C1100   1.282       .  A
O1098      H1108   0.990       .  S
O1099      H1112   0.990       .  S
C1100      C2798   1.484       .  S
Zr1123     O1124   2.442       .  S
Zr1123     O1125   2.434       .  S
Zr1123     O1126   2.431       .  S
Zr1123     O1129   2.425       .  S
Zr1123     O1131   2.379       .  S
Zr1123     O1132   2.386       .  S
Zr1123     O1133   2.405       .  S
Zr1123     O1134   2.401       .  S
O1124      H1180   0.990       .  S
O1124      H1188   0.990       .  S
O1125      C1145   1.283       .  A
O1126      C1147   1.283       .  A
O1127     Zr1137   2.406       .  S
O1127      C1146   1.280       .  A
O1128     Zr1136   2.447       .  S
O1128      C1147   1.287       .  A
O1129      C1146   1.282       .  A
O1130     Zr1138   2.406       .  S
O1130      C1145   1.279       .  A
O1131     Zr1136   2.389       .  S
O1131     Zr1138   2.384       .  S
O1132     Zr1137   2.389       .  S
O1132     Zr1138   2.381       .  S
O1132      H1167   0.966       .  S
O1133     Zr1136   2.395       .  S
O1133     Zr1153   2.393       .  S
O1133      H1170   0.966       .  S
O1134     Zr1137   2.391       .  S
O1134     Zr1153   2.388       .  S
Zr1135     O1160   2.446       .  S
Zr1135     O1154   2.421   1_554  S
Zr1135     O1162   2.449       .  S
Zr1135     O1150   2.424       .  S
Zr1135     O1141   2.396       .  S
Zr1135     O1142   2.408       .  S
Zr1135     O1143   2.385       .  S
Zr1135     O1144   2.379       .  S
Zr1136     O1155   2.436       .  S
Zr1136     O1148   2.435       .  S
Zr1136     O1149   2.423       .  S
Zr1136     O1142   2.403       .  S
Zr1136     O1143   2.387       .  S
Zr1137     O1139   2.435       .  S
Zr1137     O1161   2.436       .  S
Zr1137     O1163   2.420       .  S
Zr1137     O1141   2.381       .  S
Zr1137     O1144   2.386       .  S
Zr1138     O1164   2.436       .  S
Zr1138     O1165   2.437       .  S
Zr1138     O1140   2.437       .  S
Zr1138     O1141   2.393       .  S
Zr1138     O1142   2.387       .  S
O1139      H1176   0.991       .  S
O1140      H1171   0.991       .  S
O1140      H1185   0.990       .  S
O1142      H1168   0.965       .  S
O1143     Zr1153   2.370       .  S
O1144     Zr1153   2.374       .  S
O1144      H1169   0.966       .  S
C1145      C2717   1.474       .  S
C1146      C3878   1.469       .  S
C1147      C2870   1.495       .  S
O1148      H1184   0.990       .  S
O1149      C1151   1.284       .  A
O1150      C1151   1.283       .  A
C1151      C2741   1.466   1_554  S
O1152     Zr1153   2.438       .  S
O1152      H1181   0.990       .  S
Zr1153     O1156   2.437       .  S
Zr1153     O1157   2.439       .  S
Zr1153     O1158   2.421       .  S
O1154      C1159   1.283       .  A
O1155      H1172   0.990       .  S
O1155      H1187   0.990       .  S
O1156      H1173   0.990       .  S
O1157      H1177   0.990       .  S
O1157      H1186   0.990       .  S
O1158      C1159   1.283   1_554  A
C1159      C2765   1.487       .  S
O1160      H1179   0.991       .  S
O1160      H1183   0.990       .  S
O1161      H1175   0.990       .  S
O1161      H1182   0.990       .  S
O1162      C1166   1.287       .  A
O1163      C1166   1.282       .  A
O1164      H1174   0.990       .  S
O1165      H1178   0.990       .  S
C1166      C2693   1.486       .  S
Zr1189     O1190   2.442       .  S
Zr1189     O1191   2.450       .  S
Zr1189     O1192   2.450       .  S
Zr1189     O1195   2.417       .  S
Zr1189     O1197   2.373       .  S
Zr1189     O1198   2.386       .  S
Zr1189     O1199   2.407       .  S
Zr1189     O1200   2.410       .  S
O1190      H1246   0.990       .  S
O1190      H1254   0.991       .  S
O1191      C1211   1.287       .  A
O1192      C1213   1.286       .  A
O1193     Zr1203   2.404       .  S
O1193      C1212   1.280       .  A
O1194     Zr1202   2.422       .  S
O1194      C1213   1.281       .  A
O1195      C1212   1.282       .  A
O1196     Zr1204   2.413       .  S
O1196      C1211   1.280       .  A
O1197     Zr1202   2.391       .  S
O1197     Zr1204   2.386       .  S
O1198     Zr1203   2.390       .  S
O1198     Zr1204   2.374       .  S
O1198      H1233   0.967       .  S
O1199     Zr1202   2.393       .  S
O1199     Zr1219   2.397       .  S
O1199      H1236   0.966       .  S
O1200     Zr1203   2.393       .  S
O1200     Zr1219   2.394       .  S
Zr1201     O1226   2.439       .  S
Zr1201     O1220   2.423       .  S
Zr1201     O1228   2.453       .  S
Zr1201     O1216   2.437       .  S
Zr1201     O1207   2.400       .  S
Zr1201     O1208   2.402       .  S
Zr1201     O1209   2.382       .  S
Zr1201     O1210   2.380       .  S
Zr1202     O1221   2.436       .  S
Zr1202     O1214   2.434   1_655  S
Zr1202     O1215   2.399   1_655  S
Zr1202     O1208   2.395       .  S
Zr1202     O1209   2.390       .  S
Zr1203     O1205   2.436       .  S
Zr1203     O1227   2.436       .  S
Zr1203     O1229   2.419       .  S
Zr1203     O1207   2.384       .  S
Zr1203     O1210   2.387       .  S
Zr1204     O1230   2.436       .  S
Zr1204     O1231   2.436   1_655  S
Zr1204     O1206   2.435   1_655  S
Zr1204     O1207   2.396       .  S
Zr1204     O1208   2.387       .  S
O1205      H1242   0.990       .  S
O1206      H1237   0.990       .  S
O1206      H1251   0.990       .  S
O1208      H1234   0.965   1_655  S
O1209     Zr1219   2.372       .  S
O1210     Zr1219   2.372       .  S
O1210      H1235   0.966       .  S
C1211      C3845   1.489   1_655  S
C1212      C2645   1.475       .  S
C1213      C2669   1.494       .  S
O1214      H1250   0.990       .  S
O1215      C1217   1.280       .  A
O1216      C1217   1.286   1_655  A
C1217      C3662   1.474       .  S
O1218     Zr1219   2.439       .  S
O1218      H1247   0.991       .  S
Zr1219     O1222   2.437       .  S
Zr1219     O1223   2.439       .  S
Zr1219     O1224   2.431       .  S
O1220      C1225   1.284       .  A
O1221      H1238   0.990       .  S
O1221      H1253   0.990       .  S
O1222      H1239   0.990       .  S
O1223      H1243   0.990       .  S
O1223      H1252   0.990       .  S
O1224      C1225   1.283       .  A
C1225      C2774   1.490       .  S
O1226      H1245   0.990       .  S
O1226      H1249   0.990       .  S
O1227      H1241   0.990       .  S
O1227      H1248   0.990       .  S
O1228      C1232   1.287       .  A
O1229      C1232   1.283       .  A
O1230      H1240   0.990   1_655  S
O1231      H1244   0.990       .  S
C1232      C2630   1.489       .  S
Zr1255     O1256   2.441       .  S
Zr1255     O1257   2.455       .  S
Zr1255     O1258   2.438       .  S
Zr1255     O1261   2.436       .  S
Zr1255     O1263   2.373       .  S
Zr1255     O1264   2.385       .  S
Zr1255     O1265   2.415       .  S
Zr1255     O1266   2.403       .  S
O1256      H1312   0.990       .  S
O1256      H1320   0.991       .  S
O1257      C1277   1.288   1_655  A
O1258      C1279   1.285       .  A
O1259     Zr1269   2.419       .  S
O1259      C1278   1.282       .  A
O1260     Zr1268   2.434       .  S
O1260      C1279   1.285       .  A
O1261      C1278   1.285       .  A
O1262     Zr1270   2.421   1_455  S
O1262      C1277   1.281       .  A
O1263     Zr1268   2.392       .  S
O1263     Zr1270   2.380       .  S
O1264     Zr1269   2.394       .  S
O1264     Zr1270   2.382       .  S
O1264      H1299   0.966       .  S
O1265     Zr1268   2.396       .  S
O1265     Zr1285   2.400       .  S
O1265      H1302   0.967       .  S
O1266     Zr1269   2.385       .  S
O1266     Zr1285   2.395       .  S
Zr1267     O1292   2.444       .  S
Zr1267     O1286   2.447       .  S
Zr1267     O1294   2.451       .  S
Zr1267     O1282   2.444       .  S
Zr1267     O1273   2.410       .  S
Zr1267     O1274   2.411       .  S
Zr1267     O1275   2.385       .  S
Zr1267     O1276   2.378       .  S
Zr1268     O1287   2.436       .  S
Zr1268     O1280   2.435   1_655  S
Zr1268     O1281   2.413   1_655  S
Zr1268     O1274   2.400       .  S
Zr1268     O1275   2.391       .  S
Zr1269     O1271   2.436       .  S
Zr1269     O1293   2.436       .  S
Zr1269     O1295   2.416       .  S
Zr1269     O1273   2.387       .  S
Zr1269     O1276   2.389       .  S
Zr1270     O1296   2.436       .  S
Zr1270     O1297   2.436   1_655  S
Zr1270     O1272   2.438   1_655  S
Zr1270     O1273   2.404       .  S
Zr1270     O1274   2.388       .  S
O1271      H1308   0.990       .  S
O1272      H1303   0.990       .  S
O1272      H1317   0.990       .  S
O1274      H1300   0.965   1_655  S
O1275     Zr1285   2.372       .  S
O1276     Zr1285   2.367       .  S
O1276      H1301   0.966       .  S
C1277      C2573   1.495       .  S
C1278      C2942   1.482       .  S
C1279      C2678   1.493       .  S
O1280      H1316   0.990       .  S
O1281      C1283   1.283       .  A
O1282      C1283   1.287   1_655  A
C1283      C2597   1.485       .  S
O1284     Zr1285   2.438       .  S
O1284      H1313   0.990       .  S
Zr1285     O1288   2.437       .  S
Zr1285     O1289   2.440       .  S
Zr1285     O1290   2.439       .  S
O1286      C1291   1.288       .  A
O1287      H1304   0.990       .  S
O1287      H1319   0.990   1_655  S
O1288      H1305   0.990       .  S
O1289      H1309   0.990       .  S
O1289      H1318   0.990       .  S
O1290      C1291   1.285       .  A
C1291      C2846   1.503       .  S
O1292      H1311   0.991       .  S
O1292      H1315   0.990   1_655  S
O1293      H1307   0.990       .  S
O1293      H1314   0.990       .  S
O1294      C1298   1.288       .  A
O1295      C1298   1.283       .  A
O1296      H1306   0.990   1_655  S
O1297      H1310   0.990       .  S
C1298      C2549   1.488       .  S
Zr1321     O1322   2.440       .  S
Zr1321     O1323   2.428       .  S
Zr1321     O1324   2.462       .  S
Zr1321     O1327   2.427       .  S
Zr1321     O1329   2.374       .  S
Zr1321     O1330   2.388       .  S
Zr1321     O1331   2.399       .  S
Zr1321     O1332   2.404       .  S
O1322      H1378   0.991       .  S
O1322      H1386   0.990       .  S
O1323      C1343   1.283       .  A
O1324      C1345   1.289       .  A
O1325     Zr1335   2.393       .  S
O1325      C1344   1.279       .  A
O1326     Zr1334   2.399       .  S
O1326      C1345   1.278       .  A
O1327      C1344   1.284       .  A
O1328     Zr1336   2.422       .  S
O1328      C1343   1.283       .  A
O1329     Zr1334   2.388       .  S
O1329     Zr1336   2.376       .  S
O1330     Zr1335   2.387       .  S
O1330     Zr1336   2.367       .  S
O1330      H1365   0.966       .  S
O1331     Zr1334   2.388       .  S
O1331     Zr1351   2.397       .  S
O1331      H1368   0.964       .  S
O1332     Zr1335   2.397       .  S
O1332     Zr1351   2.388       .  S
Zr1333     O1358   2.442       .  S
Zr1333     O1352   2.443       .  S
Zr1333     O1360   2.439       .  S
Zr1333     O1348   2.429       .  S
Zr1333     O1339   2.401       .  S
Zr1333     O1340   2.413       .  S
Zr1333     O1341   2.380       .  S
Zr1333     O1342   2.382       .  S
Zr1334     O1353   2.437       .  S
Zr1334     O1346   2.434       .  S
Zr1334     O1347   2.396       .  S
Zr1334     O1340   2.391       .  S
Zr1334     O1341   2.385       .  S
Zr1335     O1337   2.436       .  S
Zr1335     O1359   2.439       .  S
Zr1335     O1361   2.420       .  S
Zr1335     O1339   2.382       .  S
Zr1335     O1342   2.387       .  S
Zr1336     O1362   2.435       .  S
Zr1336     O1363   2.435       .  S
Zr1336     O1338   2.435       .  S
Zr1336     O1339   2.394       .  S
Zr1336     O1340   2.390       .  S
O1337      H1374   0.990       .  S
O1338      H1369   0.990       .  S
O1338      H1383   0.990       .  S
O1340      H1366   0.964       .  S
O1341     Zr1351   2.377       .  S
O1342     Zr1351   2.389       .  S
O1342      H1367   0.965       .  S
C1343      C2501   1.490       .  S
C1344      C2654   1.476       .  S
C1345      C3053   1.490       .  S
O1346      H1382   0.990       .  S
O1347      C1349   1.279       .  A
O1348      C1349   1.282       .  A
C1349      C4118   1.471       .  S
O1350     Zr1351   2.438       .  S
O1350      H1379   0.991       .  S
Zr1351     O1354   2.439       .  S
Zr1351     O1355   2.439       .  S
Zr1351     O1356   2.403       .  S
O1352      C1357   1.284       .  A
O1353      H1370   0.990       .  S
O1353      H1385   0.990       .  S
O1354      H1371   0.990       .  S
O1355      H1375   0.990       .  S
O1355      H1384   0.989       .  S
O1356      C1357   1.279       .  A
C1357      C2726   1.478       .  S
O1358      H1377   0.990       .  S
O1358      H1381   0.990       .  S
O1359      H1373   0.990       .  S
O1359      H1380   0.989       .  S
O1360      C1364   1.284       .  A
O1361      C1364   1.281       .  A
O1362      H1372   0.990       .  S
O1363      H1376   0.990       .  S
C1364      C2534   1.489       .  S
Zr1387     O1388   2.440       .  S
Zr1387     O1389   2.434       .  S
Zr1387     O1390   2.464       .  S
Zr1387     O1393   2.436       .  S
Zr1387     O1395   2.377       .  S
Zr1387     O1396   2.393       .  S
Zr1387     O1397   2.404       .  S
Zr1387     O1398   2.400       .  S
O1388      H1444   0.990       .  S
O1388      H1452   0.991       .  S
O1389      C1409   1.284       .  A
O1390      C1411   1.288       .  A
O1391     Zr1401   2.422       .  S
O1391      C1410   1.284       .  A
O1392     Zr1400   2.415       .  S
O1392      C1411   1.282       .  A
O1393      C1410   1.287       .  A
O1394     Zr1402   2.417       .  S
O1394      C1409   1.282       .  A
O1395     Zr1400   2.389       .  S
O1395     Zr1402   2.375       .  S
O1396     Zr1401   2.391       .  S
O1396     Zr1402   2.376       .  S
O1396      H1431   0.966       .  S
O1397     Zr1400   2.389       .  S
O1397     Zr1417   2.404       .  S
O1397      H1434   0.965       .  S
O1398     Zr1401   2.392       .  S
O1398     Zr1417   2.387       .  S
Zr1399     O1424   2.442       .  S
Zr1399     O1418   2.451       .  S
Zr1399     O1426   2.430       .  S
Zr1399     O1414   2.436       .  S
Zr1399     O1405   2.408       .  S
Zr1399     O1406   2.411       .  S
Zr1399     O1407   2.382       .  S
Zr1399     O1408   2.377       .  S
Zr1400     O1419   2.435       .  S
Zr1400     O1412   2.435       .  S
Zr1400     O1413   2.409       .  S
Zr1400     O1406   2.399       .  S
Zr1400     O1407   2.393       .  S
Zr1401     O1403   2.435       .  S
Zr1401     O1425   2.438       .  S
Zr1401     O1427   2.433       .  S
Zr1401     O1405   2.387       .  S
Zr1401     O1408   2.385       .  S
Zr1402     O1428   2.436       .  S
Zr1402     O1429   2.436       .  S
Zr1402     O1404   2.438       .  S
Zr1402     O1405   2.394       .  S
Zr1402     O1406   2.384       .  S
O1403      H1440   0.990       .  S
O1404      H1435   0.990       .  S
O1404      H1449   0.990       .  S
O1406      H1432   0.963       .  S
O1407     Zr1417   2.381       .  S
O1408     Zr1417   2.378       .  S
O1408      H1433   0.966       .  S
C1409      C2486   1.481       .  S
C1410      C2462   1.486       .  S
C1411      C3134   1.494       .  S
O1412      H1448   0.990       .  S
O1413      C1415   1.281       .  A
O1414      C1415   1.283       .  A
C1415      C3326   1.478       .  S
O1416     Zr1417   2.438       .  S
O1416      H1445   0.990       .  S
Zr1417     O1420   2.437       .  S
Zr1417     O1421   2.440       .  S
Zr1417     O1422   2.420       .  S
O1418      C1423   1.287       .  A
O1419      H1436   0.990       .  S
O1419      H1451   0.990       .  S
O1420      H1437   0.990       .  S
O1421      H1441   0.990       .  S
O1421      H1450   0.990       .  S
O1422      C1423   1.282       .  A
C1423      C2438   1.487       .  S
O1424      H1443   0.990       .  S
O1424      H1447   0.990       .  S
O1425      H1439   0.990       .  S
O1425      H1446   0.990       .  S
O1426      C1430   1.284       .  A
O1427      C1430   1.285       .  A
O1428      H1438   0.990       .  S
O1429      H1442   0.990       .  S
C1430      C2525   1.491       .  S
Zr1453     O1454   2.439       .  S
Zr1453     O1455   2.424       .  S
Zr1453     O1456   2.449       .  S
Zr1453     O1459   2.414       .  S
Zr1453     O1461   2.375       .  S
Zr1453     O1462   2.389       .  S
Zr1453     O1463   2.396       .  S
Zr1453     O1464   2.399       .  S
O1454      H1510   0.990       .  S
O1454      H1518   0.990       .  S
O1455      C1475   1.283       .  A
O1456      C1477   1.286       .  A
O1457     Zr1467   2.417       .  S
O1457      C1476   1.283       .  A
O1458     Zr1466   2.424       .  S
O1458      C1477   1.283       .  A
O1459      C1476   1.283       .  A
O1460     Zr1468   2.432       .  S
O1460      C1475   1.284       .  A
O1461     Zr1466   2.387       .  S
O1461     Zr1468   2.375       .  S
O1462     Zr1467   2.391       .  S
O1462     Zr1468   2.365       .  S
O1462      H1497   0.965       .  S
O1463     Zr1466   2.386       .  S
O1463     Zr1483   2.398       .  S
O1463      H1500   0.964       .  S
O1464     Zr1467   2.395       .  S
O1464     Zr1483   2.387       .  S
Zr1465     O1490   2.443       .  S
Zr1465     O1484   2.467       .  S
Zr1465     O1492   2.443       .  S
Zr1465     O1480   2.447       .  S
Zr1465     O1471   2.409       .  S
Zr1465     O1472   2.423       .  S
Zr1465     O1473   2.384       .  S
Zr1465     O1474   2.380       .  S
Zr1466     O1485   2.435       .  S
Zr1466     O1478   2.433       .  S
Zr1466     O1479   2.411       .  S
Zr1466     O1472   2.404       .  S
Zr1466     O1473   2.396       .  S
Zr1467     O1469   2.435       .  S
Zr1467     O1491   2.438       .  S
Zr1467     O1493   2.440       .  S
Zr1467     O1471   2.383       .  S
Zr1467     O1474   2.388       .  S
Zr1468     O1494   2.435       .  S
Zr1468     O1495   2.434       .  S
Zr1468     O1470   2.439       .  S
Zr1468     O1471   2.398       .  S
Zr1468     O1472   2.387       .  S
O1469      H1506   0.990       .  S
O1470      H1501   0.990       .  S
O1470      H1515   0.990       .  S
O1472      H1498   0.965       .  S
O1473     Zr1483   2.384       .  S
O1474     Zr1483   2.387       .  S
O1474      H1499   0.966       .  S
C1475      C2510   1.483       .  S
C1476      C4334   1.479       .  S
C1477      C2885   1.489       .  S
O1478      H1514   0.990       .  S
O1479      C1481   1.281       .  A
O1480      C1481   1.285       .  A
C1481      C2750   1.469       .  S
O1482     Zr1483   2.439       .  S
O1482      H1511   0.991       .  S
Zr1483     O1486   2.437       .  S
Zr1483     O1487   2.439       .  S
Zr1483     O1488   2.401       .  S
O1484      C1489   1.289       .  A
O1485      H1502   0.990       .  S
O1485      H1517   0.990       .  S
O1486      H1503   0.990       .  S
O1487      H1507   0.990       .  S
O1487      H1516   0.990       .  S
O1488      C1489   1.278       .  A
C1489      C4070   1.487       .  S
O1490      H1509   0.991       .  S
O1490      H1513   0.990       .  S
O1491      H1505   0.990       .  S
O1491      H1512   0.990       .  S
O1492      C1496   1.286       .  A
O1493      C1496   1.285       .  A
O1494      H1504   0.990       .  S
O1495      H1508   0.991       .  S
C1496      C2405   1.497       .  S
Zr1519     O1520   2.441   1_556  S
Zr1519     O1521   2.436   1_556  S
Zr1519     O1522   2.452   1_556  S
Zr1519     O1525   2.417   1_556  S
Zr1519     O1527   2.374       .  S
Zr1519     O1528   2.390       .  S
Zr1519     O1529   2.402       .  S
Zr1519     O1530   2.403       .  S
O1520      H1576   0.990       .  S
O1520      H1584   0.990       .  S
O1521      C1541   1.284       .  A
O1522      C1543   1.286   1_554  A
O1523     Zr1533   2.416       .  S
O1523      C1542   1.284   1_556  A
O1524     Zr1532   2.427       .  S
O1524      C1543   1.283       .  A
O1525      C1542   1.282       .  A
O1526     Zr1534   2.403   1_554  S
O1526      C1541   1.279       .  A
O1527     Zr1532   2.389       .  S
O1527     Zr1534   2.380       .  S
O1528     Zr1533   2.396       .  S
O1528     Zr1534   2.373       .  S
O1528      H1563   0.966   1_556  S
O1529     Zr1532   2.390       .  S
O1529     Zr1549   2.396       .  S
O1529      H1566   0.964       .  S
O1530     Zr1533   2.395       .  S
O1530     Zr1549   2.386       .  S
Zr1531     O1556   2.441       .  S
Zr1531     O1550   2.441       .  S
Zr1531     O1558   2.440       .  S
Zr1531     O1546   2.442       .  S
Zr1531     O1537   2.398       .  S
Zr1531     O1538   2.410       .  S
Zr1531     O1539   2.385       .  S
Zr1531     O1540   2.380       .  S
Zr1532     O1551   2.437       .  S
Zr1532     O1544   2.435       .  S
Zr1532     O1545   2.393       .  S
Zr1532     O1538   2.405       .  S
Zr1532     O1539   2.395       .  S
Zr1533     O1535   2.435       .  S
Zr1533     O1557   2.436       .  S
Zr1533     O1559   2.445       .  S
Zr1533     O1537   2.385       .  S
Zr1533     O1540   2.389       .  S
Zr1534     O1560   2.438   1_556  S
Zr1534     O1561   2.435       .  S
Zr1534     O1536   2.437       .  S
Zr1534     O1537   2.389       .  S
Zr1534     O1538   2.378       .  S
O1535      H1572   0.990       .  S
O1536      H1567   0.990       .  S
O1536      H1581   0.990       .  S
O1538      H1564   0.962       .  S
O1539     Zr1549   2.378       .  S
O1540     Zr1549   2.387       .  S
O1540      H1565   0.965       .  S
C1541      C2477   1.486       .  S
C1542      C3461   1.475       .  S
C1543      C2957   1.484   1_556  S
O1544      H1580   0.990       .  S
O1545      C1547   1.278       .  A
O1546      C1547   1.283       .  A
C1547      C2381   1.472       .  S
O1548     Zr1549   2.438       .  S
O1548      H1577   0.991       .  S
Zr1549     O1552   2.437       .  S
Zr1549     O1553   2.440       .  S
Zr1549     O1554   2.402       .  S
O1550      C1555   1.285       .  A
O1551      H1568   0.990       .  S
O1551      H1583   0.990       .  S
O1552      H1569   0.990       .  S
O1553      H1573   0.990       .  S
O1553      H1582   0.990       .  S
O1554      C1555   1.278       .  A
C1555      C3293   1.476       .  S
O1556      H1575   0.990       .  S
O1556      H1579   0.990       .  S
O1557      H1571   0.990       .  S
O1557      H1578   0.990       .  S
O1558      C1562   1.285       .  A
O1559      C1562   1.287       .  A
O1560      H1570   0.990       .  S
O1561      H1574   0.990       .  S
C1562      C2414   1.498       .  S
Zr1585     O1586   2.439       .  S
Zr1585     O1587   2.429       .  S
Zr1585     O1588   2.469       .  S
Zr1585     O1591   2.420       .  S
Zr1585     O1593   2.374       .  S
Zr1585     O1594   2.394   1_545  S
Zr1585     O1595   2.400       .  S
Zr1585     O1596   2.406       .  S
O1586      H1642   0.990       .  S
O1586      H1650   0.990       .  S
O1587      C1607   1.284       .  A
O1588      C1609   1.289       .  A
O1589     Zr1599   2.411       .  S
O1589      C1608   1.284   1_565  A
O1590     Zr1598   2.411       .  S
O1590      C1609   1.280       .  A
O1591      C1608   1.283       .  A
O1592     Zr1600   2.429       .  S
O1592      C1607   1.283   1_565  A
O1593     Zr1598   2.387       .  S
O1593     Zr1600   2.378   1_545  S
O1594     Zr1599   2.390       .  S
O1594     Zr1600   2.366       .  S
O1594      H1629   0.967       .  S
O1595     Zr1598   2.384       .  S
O1595     Zr1615   2.404       .  S
O1595      H1632   0.965       .  S
O1596     Zr1599   2.395   1_545  S
O1596     Zr1615   2.385       .  S
Zr1597     O1622   2.442       .  S
Zr1597     O1616   2.443       .  S
Zr1597     O1624   2.436       .  S
Zr1597     O1612   2.427   1_565  S
Zr1597     O1603   2.406       .  S
Zr1597     O1604   2.412   1_565  S
Zr1597     O1605   2.381   1_565  S
Zr1597     O1606   2.377       .  S
Zr1598     O1617   2.436       .  S
Zr1598     O1610   2.434       .  S
Zr1598     O1611   2.396       .  S
Zr1598     O1604   2.395       .  S
Zr1598     O1605   2.390       .  S
Zr1599     O1601   2.436       .  S
Zr1599     O1623   2.436       .  S
Zr1599     O1625   2.438       .  S
Zr1599     O1603   2.388       .  S
Zr1599     O1606   2.384       .  S
Zr1600     O1626   2.438       .  S
Zr1600     O1627   2.436       .  S
Zr1600     O1602   2.436       .  S
Zr1600     O1603   2.398       .  S
Zr1600     O1604   2.392   1_565  S
O1601      H1638   0.990       .  S
O1602      H1633   0.991       .  S
O1602      H1647   0.990   1_565  S
O1604      H1630   0.963       .  S
O1605     Zr1615   2.381       .  S
O1606     Zr1615   2.384   1_565  S
O1606      H1631   0.966       .  S
C1607      C2333   1.484       .  S
C1608      C2309   1.475       .  S
C1609      C3533   1.488       .  S
O1610      H1646   0.990       .  S
O1611      C1613   1.279       .  A
O1612      C1613   1.283       .  A
C1613      C3422   1.476       .  S
O1614     Zr1615   2.439       .  S
O1614      H1643   0.990       .  S
Zr1615     O1618   2.437       .  S
Zr1615     O1619   2.440       .  S
Zr1615     O1620   2.411       .  S
O1616      C1621   1.285   1_565  A
O1617      H1634   0.990       .  S
O1617      H1649   0.990       .  S
O1618      H1635   0.991       .  S
O1619      H1639   0.990       .  S
O1619      H1648   0.990       .  S
O1620      C1621   1.280       .  A
C1621      C2285   1.479       .  S
O1622      H1641   0.990       .  S
O1622      H1645   0.990       .  S
O1623      H1637   0.990       .  S
O1623      H1644   0.990       .  S
O1624      C1628   1.283       .  A
O1625      C1628   1.285       .  A
O1626      H1636   0.990       .  S
O1627      H1640   0.990       .  S
C1628      C2357   1.497       .  S
Zr1651     O1652   2.440       .  S
Zr1651     O1653   2.425       .  S
Zr1651     O1654   2.450       .  S
Zr1651     O1657   2.428       .  S
Zr1651     O1659   2.375   1_554  S
Zr1651     O1660   2.388       .  S
Zr1651     O1661   2.402   1_554  S
Zr1651     O1662   2.401   1_554  S
O1652      H1708   0.990       .  S
O1652      H1716   0.990       .  S
O1653      C1673   1.283       .  A
O1654      C1675   1.286   1_554  A
O1655     Zr1665   2.421   1_554  S
O1655      C1674   1.284       .  A
O1656     Zr1664   2.413       .  S
O1656      C1675   1.281       .  A
O1657      C1674   1.284       .  A
O1658     Zr1666   2.423   1_554  S
O1658      C1673   1.283       .  A
O1659     Zr1664   2.387       .  S
O1659     Zr1666   2.374       .  S
O1660     Zr1665   2.390   1_554  S
O1660     Zr1666   2.370   1_554  S
O1660      H1695   0.967       .  S
O1661     Zr1664   2.391       .  S
O1661     Zr1681   2.400       .  S
O1661      H1698   0.965       .  S
O1662     Zr1665   2.392       .  S
O1662     Zr1681   2.390       .  S
Zr1663     O1688   2.441       .  S
Zr1663     O1682   2.458       .  S
Zr1663     O1690   2.435       .  S
Zr1663     O1678   2.436       .  S
Zr1663     O1669   2.410       .  S
Zr1663     O1670   2.415       .  S
Zr1663     O1671   2.378       .  S
Zr1663     O1672   2.378       .  S
Zr1664     O1683   2.438       .  S
Zr1664     O1676   2.433       .  S
Zr1664     O1677   2.406       .  S
Zr1664     O1670   2.398       .  S
Zr1664     O1671   2.393       .  S
Zr1665     O1667   2.435       .  S
Zr1665     O1689   2.437   1_556  S
Zr1665     O1691   2.436       .  S
Zr1665     O1669   2.385       .  S
Zr1665     O1672   2.393       .  S
Zr1666     O1692   2.435   1_556  S
Zr1666     O1693   2.436       .  S
Zr1666     O1668   2.440       .  S
Zr1666     O1669   2.396       .  S
Zr1666     O1670   2.388       .  S
O1667      H1704   0.990       .  S
O1668      H1699   0.990   1_556  S
O1668      H1713   0.990       .  S
O1670      H1696   0.964       .  S
O1671     Zr1681   2.381       .  S
O1672     Zr1681   2.384       .  S
O1672      H1697   0.965       .  S
C1673      C2261   1.485       .  S
C1674      C2822   1.475       .  S
C1675      C3638   1.483   1_556  S
O1676      H1712   0.990       .  S
O1677      C1679   1.280       .  A
O1678      C1679   1.282       .  A
C1679      C4229   1.464       .  S
O1680     Zr1681   2.438       .  S
O1680      H1709   0.990       .  S
Zr1681     O1684   2.437       .  S
Zr1681     O1685   2.439       .  S
Zr1681     O1686   2.416       .  S
O1682      C1687   1.287       .  A
O1683      H1700   0.990       .  S
O1683      H1715   0.990       .  S
O1684      H1701   0.990       .  S
O1685      H1705   0.990       .  S
O1685      H1714   0.990       .  S
O1686      C1687   1.281       .  A
C1687      C2582   1.494       .  S
O1688      H1707   0.991       .  S
O1688      H1711   0.990       .  S
O1689      H1703   0.990   1_554  S
O1689      H1710   0.990   1_554  S
O1690      C1694   1.284       .  A
O1691      C1694   1.286       .  A
O1692      H1702   0.990       .  S
O1693      H1706   0.990       .  S
C1694      C2366   1.495       .  S
Zr1717     O1718   2.439       .  S
Zr1717     O1719   2.430       .  S
Zr1717     O1720   2.446       .  S
Zr1717     O1723   2.435       .  S
Zr1717     O1725   2.381       .  S
Zr1717     O1726   2.386   1_545  S
Zr1717     O1727   2.404       .  S
Zr1717     O1728   2.400       .  S
O1718      H1774   0.990       .  S
O1718      H1782   0.990       .  S
O1719      C1739   1.285       .  A
O1720      C1741   1.286       .  A
O1721     Zr1731   2.412       .  S
O1721      C1740   1.282   1_565  A
O1722     Zr1730   2.420       .  S
O1722      C1741   1.284       .  A
O1723      C1740   1.286       .  A
O1724     Zr1732   2.428       .  S
O1724      C1739   1.283   1_565  A
O1725     Zr1730   2.388       .  S
O1725     Zr1732   2.377   1_545  S
O1726     Zr1731   2.385       .  S
O1726     Zr1732   2.370       .  S
O1726      H1761   0.966       .  S
O1727     Zr1730   2.392       .  S
O1727     Zr1747   2.394       .  S
O1727      H1764   0.965       .  S
O1728     Zr1731   2.392   1_545  S
O1728     Zr1747   2.390       .  S
Zr1729     O1754   2.442       .  S
Zr1729     O1748   2.458       .  S
Zr1729     O1756   2.440       .  S
Zr1729     O1744   2.431       .  S
Zr1729     O1735   2.409       .  S
Zr1729     O1736   2.415       .  S
Zr1729     O1737   2.381   1_565  S
Zr1729     O1738   2.382       .  S
Zr1730     O1749   2.435       .  S
Zr1730     O1742   2.435       .  S
Zr1730     O1743   2.416       .  S
Zr1730     O1736   2.393   1_545  S
Zr1730     O1737   2.393       .  S
Zr1731     O1733   2.435       .  S
Zr1731     O1755   2.437       .  S
Zr1731     O1757   2.427       .  S
Zr1731     O1735   2.388       .  S
Zr1731     O1738   2.388       .  S
Zr1732     O1758   2.435       .  S
Zr1732     O1759   2.436       .  S
Zr1732     O1734   2.437       .  S
Zr1732     O1735   2.398       .  S
Zr1732     O1736   2.391       .  S
O1733      H1770   0.990       .  S
O1734      H1765   0.990       .  S
O1734      H1779   0.990   1_565  S
O1736      H1762   0.963       .  S
O1737     Zr1747   2.377       .  S
O1738     Zr1747   2.385   1_565  S
O1738      H1763   0.966       .  S
C1739      C2342   1.492       .  S
C1740      C3269   1.478       .  S
C1741      C3701   1.491       .  S
O1742      H1778   0.990       .  S
O1743      C1745   1.281       .  A
O1744      C1745   1.284   1_565  A
C1745      C2222   1.466       .  S
O1746     Zr1747   2.438       .  S
O1746      H1775   0.990       .  S
Zr1747     O1750   2.438       .  S
Zr1747     O1751   2.438       .  S
Zr1747     O1752   2.404       .  S
O1748      C1753   1.288   1_565  A
O1749      H1766   0.990       .  S
O1749      H1781   0.990       .  S
O1750      H1767   0.990       .  S
O1751      H1771   0.990       .  S
O1751      H1780   0.990       .  S
O1752      C1753   1.279       .  A
C1753      C3374   1.488       .  S
O1754      H1773   0.990       .  S
O1754      H1777   0.991       .  S
O1755      H1769   0.990       .  S
O1755      H1776   0.990       .  S
O1756      C1760   1.284       .  A
O1757      C1760   1.284       .  A
O1758      H1768   0.990       .  S
O1759      H1772   0.990       .  S
C1760      C2246   1.489       .  S
Zr1783     O1784   2.439       .  S
Zr1783     O1785   2.434       .  S
Zr1783     O1786   2.473       .  S
Zr1783     O1789   2.432       .  S
Zr1783     O1791   2.375       .  S
Zr1783     O1792   2.394       .  S
Zr1783     O1793   2.403       .  S
Zr1783     O1794   2.409       .  S
O1784      H1840   0.990       .  S
O1784      H1848   0.990       .  S
O1785      C1805   1.285       .  A
O1786      C1807   1.291       .  A
O1787     Zr1797   2.414       .  S
O1787      C1806   1.282       .  A
O1788     Zr1796   2.409       .  S
O1788      C1807   1.280       .  A
O1789      C1806   1.286       .  A
O1790     Zr1798   2.419       .  S
O1790      C1805   1.282       .  A
O1791     Zr1796   2.384       .  S
O1791     Zr1798   2.378       .  S
O1792     Zr1797   2.392       .  S
O1792     Zr1798   2.369       .  S
O1792      H1827   0.966       .  S
O1793     Zr1796   2.388       .  S
O1793     Zr1813   2.400       .  S
O1793      H1830   0.966       .  S
O1794     Zr1797   2.397       .  S
O1794     Zr1813   2.392       .  S
Zr1795     O1820   2.442       .  S
Zr1795     O1814   2.445       .  S
Zr1795     O1822   2.431       .  S
Zr1795     O1810   2.439       .  S
Zr1795     O1801   2.407       .  S
Zr1795     O1802   2.410       .  S
Zr1795     O1803   2.380       .  S
Zr1795     O1804   2.383       .  S
Zr1796     O1815   2.435       .  S
Zr1796     O1808   2.435       .  S
Zr1796     O1809   2.399       .  S
Zr1796     O1802   2.393       .  S
Zr1796     O1803   2.390       .  S
Zr1797     O1799   2.437       .  S
Zr1797     O1821   2.439       .  S
Zr1797     O1823   2.432       .  S
Zr1797     O1801   2.388       .  S
Zr1797     O1804   2.391       .  S
Zr1798     O1824   2.435       .  S
Zr1798     O1825   2.435       .  S
Zr1798     O1800   2.436       .  S
Zr1798     O1801   2.394       .  S
Zr1798     O1802   2.388       .  S
O1799      H1836   0.990       .  S
O1800      H1831   0.991       .  S
O1800      H1845   0.990       .  S
O1802      H1828   0.964       .  S
O1803     Zr1813   2.380       .  S
O1804     Zr1813   2.383       .  S
O1804      H1829   0.966       .  S
C1805      C2270   1.485       .  S
C1806      C4022   1.476       .  S
C1807      C3830   1.494       .  S
O1808      H1844   0.990       .  S
O1809      C1811   1.279       .  A
O1810      C1811   1.285       .  A
C1811      C2606   1.473       .  S
O1812     Zr1813   2.439       .  S
O1812      H1841   0.990       .  S
Zr1813     O1816   2.437       .  S
Zr1813     O1817   2.439       .  S
Zr1813     O1818   2.415       .  S
O1814      C1819   1.285       .  A
O1815      H1832   0.990       .  S
O1815      H1847   0.990       .  S
O1816      H1833   0.990       .  S
O1817      H1837   0.990       .  S
O1817      H1846   0.990       .  S
O1818      C1819   1.281       .  A
C1819      C4181   1.490       .  S
O1820      H1839   0.991       .  S
O1820      H1843   0.991       .  S
O1821      H1835   0.990       .  S
O1821      H1842   0.990       .  S
O1822      C1826   1.283       .  A
O1823      C1826   1.283       .  A
O1824      H1834   0.990       .  S
O1825      H1838   0.990       .  S
C1826      C2237   1.492       .  S
Zr1849     O1850   2.440       .  S
Zr1849     O1851   2.462       .  S
Zr1849     O1852   2.437       .  S
Zr1849     O1855   2.434       .  S
Zr1849     O1857   2.372       .  S
Zr1849     O1858   2.386       .  S
Zr1849     O1859   2.411       .  S
Zr1849     O1860   2.408       .  S
O1850      H1906   0.990       .  S
O1850      H1914   0.991       .  S
O1851      C1871   1.289       .  A
O1852      C1873   1.283       .  A
O1853     Zr1863   2.414       .  S
O1853      C1872   1.282       .  A
O1854     Zr1862   2.430       .  S
O1854      C1873   1.284       .  A
O1855      C1872   1.284       .  A
O1856     Zr1864   2.406       .  S
O1856      C1871   1.279       .  A
O1857     Zr1862   2.390       .  S
O1857     Zr1864   2.383       .  S
O1858     Zr1863   2.395       .  S
O1858     Zr1864   2.383       .  S
O1858      H1893   0.966       .  S
O1859     Zr1862   2.390       .  S
O1859     Zr1879   2.405       .  S
O1859      H1896   0.966       .  S
O1860     Zr1863   2.387       .  S
O1860     Zr1879   2.396       .  S
Zr1861     O1886   2.441       .  S
Zr1861     O1880   2.427       .  S
Zr1861     O1888   2.437       .  S
Zr1861     O1876   2.416       .  S
Zr1861     O1867   2.398       .  S
Zr1861     O1868   2.403       .  S
Zr1861     O1869   2.382       .  S
Zr1861     O1870   2.377       .  S
Zr1862     O1881   2.436       .  S
Zr1862     O1874   2.435       .  S
Zr1862     O1875   2.407       .  S
Zr1862     O1868   2.400       .  S
Zr1862     O1869   2.387       .  S
Zr1863     O1865   2.436       .  S
Zr1863     O1887   2.436       .  S
Zr1863     O1889   2.427       .  S
Zr1863     O1867   2.381       .  S
Zr1863     O1870   2.388       .  S
Zr1864     O1890   2.436       .  S
Zr1864     O1891   2.435       .  S
Zr1864     O1866   2.436       .  S
Zr1864     O1867   2.397       .  S
Zr1864     O1868   2.388       .  S
O1865      H1902   0.990       .  S
O1866      H1897   0.990       .  S
O1866      H1911   0.990       .  S
O1868      H1894   0.965       .  S
O1869     Zr1879   2.364       .  S
O1870     Zr1879   2.370       .  S
O1870      H1895   0.966       .  S
C1871      C2429   1.489       .  S
C1872      C3758   1.486       .  S
C1873      C2198   1.489       .  S
O1874      H1910   0.990       .  S
O1875      C1877   1.282       .  A
O1876      C1877   1.282       .  A
C1877      C2390   1.472       .  S
O1878     Zr1879   2.438       .  S
O1878      H1907   0.990       .  S
Zr1879     O1882   2.437       .  S
Zr1879     O1883   2.439       .  S
Zr1879     O1884   2.446       .  S
O1880      C1885   1.285       .  A
O1881      H1898   0.990       .  S
O1881      H1913   0.990       .  S
O1882      H1899   0.990       .  S
O1883      H1903   0.990       .  S
O1883      H1912   0.990       .  S
O1884      C1885   1.287       .  A
C1885      C2165   1.497       .  S
O1886      H1905   0.990       .  S
O1886      H1909   0.991       .  S
O1887      H1901   0.990       .  S
O1887      H1908   0.990       .  S
O1888      C1892   1.285       .  A
O1889      C1892   1.284       .  A
O1890      H1900   0.990       .  S
O1891      H1904   0.990       .  S
C1892      C2621   1.483       .  S
Zr1915     O1916   2.440       .  S
Zr1915     O1917   2.462       .  S
Zr1915     O1918   2.445       .  S
Zr1915     O1921   2.427       .  S
Zr1915     O1923   2.376       .  S
Zr1915     O1924   2.384   1_545  S
Zr1915     O1925   2.416       .  S
Zr1915     O1926   2.409       .  S
O1916      H1972   0.990       .  S
O1916      H1980   0.990       .  S
O1917      C1937   1.289       .  A
O1918      C1939   1.285       .  A
O1919     Zr1929   2.402       .  S
O1919      C1938   1.279   1_565  A
O1920     Zr1928   2.433       .  S
O1920      C1939   1.284       .  A
O1921      C1938   1.283       .  A
O1922     Zr1930   2.403       .  S
O1922      C1937   1.278   1_565  A
O1923     Zr1928   2.388       .  S
O1923     Zr1930   2.387   1_545  S
O1924     Zr1929   2.390       .  S
O1924     Zr1930   2.378       .  S
O1924      H1959   0.965       .  S
O1925     Zr1928   2.389       .  S
O1925     Zr1945   2.397       .  S
O1925      H1962   0.967       .  S
O1926     Zr1929   2.385   1_545  S
O1926     Zr1945   2.394       .  S
Zr1927     O1952   2.442       .  S
Zr1927     O1946   2.425       .  S
Zr1927     O1954   2.447       .  S
Zr1927     O1942   2.425       .  S
Zr1927     O1933   2.395       .  S
Zr1927     O1934   2.406       .  S
Zr1927     O1935   2.387   1_565  S
Zr1927     O1936   2.378       .  S
Zr1928     O1947   2.439       .  S
Zr1928     O1940   2.436       .  S
Zr1928     O1941   2.400       .  S
Zr1928     O1934   2.398   1_545  S
Zr1928     O1935   2.389       .  S
Zr1929     O1931   2.436       .  S
Zr1929     O1953   2.436       .  S
Zr1929     O1955   2.420       .  S
Zr1929     O1933   2.383       .  S
Zr1929     O1936   2.379       .  S
Zr1930     O1956   2.434       .  S
Zr1930     O1957   2.436       .  S
Zr1930     O1932   2.437       .  S
Zr1930     O1933   2.393       .  S
Zr1930     O1934   2.386       .  S
O1931      H1968   0.990       .  S
O1932      H1963   0.991       .  S
O1932      H1977   0.990   1_565  S
O1934      H1960   0.966       .  S
O1935     Zr1945   2.368       .  S
O1936     Zr1945   2.370   1_565  S
O1936      H1961   0.967       .  S
C1937      C2990   1.486       .  S
C1938      C2318   1.476       .  S
C1939      C2189   1.495       .  S
O1940      H1976   0.990       .  S
O1941      C1943   1.280       .  A
O1942      C1943   1.284   1_565  A
C1943      C3149   1.468       .  S
O1944     Zr1945   2.438       .  S
O1944      H1973   0.990       .  S
Zr1945     O1948   2.437       .  S
Zr1945     O1949   2.438       .  S
Zr1945     O1950   2.436       .  S
O1946      C1951   1.284   1_565  A
O1947      H1964   0.990       .  S
O1947      H1979   0.990       .  S
O1948      H1965   0.990       .  S
O1949      H1969   0.990       .  S
O1949      H1978   0.990       .  S
O1950      C1951   1.286       .  A
C1951      C2141   1.491       .  S
O1952      H1971   0.990       .  S
O1952      H1975   0.990       .  S
O1953      H1967   0.990       .  S
O1953      H1974   0.990       .  S
O1954      C1958   1.287       .  A
O1955      C1958   1.283       .  A
O1956      H1966   0.990       .  S
O1957      H1970   0.990       .  S
C1958      C2558   1.478       .  S
Zr1981     O1982   2.439       .  S
Zr1981     O1983   2.460       .  S
Zr1981     O1984   2.449       .  S
Zr1981     O1987   2.435       .  S
Zr1981     O1989   2.372       .  S
Zr1981     O1990   2.390       .  S
Zr1981     O1991   2.414       .  S
Zr1981     O1992   2.408       .  S
O1982      H2038   0.990       .  S
O1982      H2046   0.990       .  S
O1983      C2003   1.289   1_655  A
O1984      C2005   1.285       .  A
O1985     Zr1995   2.421       .  S
O1985      C2004   1.284       .  A
O1986     Zr1994   2.428       .  S
O1986      C2005   1.283       .  A
O1987      C2004   1.284       .  A
O1988     Zr1996   2.406   1_455  S
O1988      C2003   1.278       .  A
O1989     Zr1994   2.389       .  S
O1989     Zr1996   2.383       .  S
O1990     Zr1995   2.393       .  S
O1990     Zr1996   2.383       .  S
O1990      H2025   0.966       .  S
O1991     Zr1994   2.389       .  S
O1991     Zr2011   2.406       .  S
O1991      H2028   0.967       .  S
O1992     Zr1995   2.385       .  S
O1992     Zr2011   2.397       .  S
Zr1993     O2018   2.442       .  S
Zr1993     O2012   2.433   1_554  S
Zr1993     O2020   2.454       .  S
Zr1993     O2008   2.433       .  S
Zr1993     O1999   2.403       .  S
Zr1993     O2000   2.407       .  S
Zr1993     O2001   2.384       .  S
Zr1993     O2002   2.379       .  S
Zr1994     O2013   2.436       .  S
Zr1994     O2006   2.436   1_655  S
Zr1994     O2007   2.398   1_655  S
Zr1994     O2000   2.403       .  S
Zr1994     O2001   2.390       .  S
Zr1995     O1997   2.435       .  S
Zr1995     O2019   2.437       .  S
Zr1995     O2021   2.422       .  S
Zr1995     O1999   2.385       .  S
Zr1995     O2002   2.389       .  S
Zr1996     O2022   2.439       .  S
Zr1996     O2023   2.435   1_655  S
Zr1996     O1998   2.438   1_655  S
Zr1996     O1999   2.398       .  S
Zr1996     O2000   2.387       .  S
O1997      H2034   0.990       .  S
O1998      H2029   0.990       .  S
O1998      H2043   0.990       .  S
O2000      H2026   0.965   1_655  S
O2001     Zr2011   2.367       .  S
O2002     Zr2011   2.366       .  S
O2002      H2027   0.966       .  S
C2003      C3734   1.490       .  S
C2004      C2453   1.487       .  S
C2005      C2117   1.495       .  S
O2006      H2042   0.990       .  S
O2007      C2009   1.280       .  A
O2008      C2009   1.286   1_655  A
C2009      C3581   1.468   1_554  S
O2010     Zr2011   2.437       .  S
O2010      H2039   0.990       .  S
Zr2011     O2014   2.436       .  S
Zr2011     O2015   2.440       .  S
Zr2011     O2016   2.451       .  S
O2012      C2017   1.285       .  A
O2013      H2030   0.990   1_655  S
O2013      H2045   0.990       .  S
O2014      H2031   0.990       .  S
O2015      H2035   0.990       .  S
O2015      H2044   0.990       .  S
O2016      C2017   1.288   1_554  A
C2017      C2174   1.502       .  S
O2018      H2037   0.990       .  S
O2018      H2041   0.991   1_655  S
O2019      H2033   0.990       .  S
O2019      H2040   0.990       .  S
O2020      C2024   1.289       .  A
O2021      C2024   1.283       .  A
O2022      H2032   0.990       .  S
O2023      H2036   0.990       .  S
C2024      C2702   1.487       .  S
Zr2047     O2048   2.441       .  S
Zr2047     O2049   2.439       .  S
Zr2047     O2050   2.437       .  S
Zr2047     O2053   2.435       .  S
Zr2047     O2055   2.375       .  S
Zr2047     O2056   2.384   1_545  S
Zr2047     O2057   2.406       .  S
Zr2047     O2058   2.398       .  S
O2048      H2104   0.990       .  S
O2048      H2112   0.991       .  S
O2049      C2069   1.286       .  A
O2050      C2071   1.284       .  A
O2051     Zr2061   2.393       .  S
O2051      C2070   1.277   1_565  A
O2052     Zr2060   2.436       .  S
O2052      C2071   1.285       .  A
O2053      C2070   1.285       .  A
O2054     Zr2062   2.397       .  S
O2054      C2069   1.277   1_565  A
O2055     Zr2060   2.387       .  S
O2055     Zr2062   2.383   1_545  S
O2056     Zr2061   2.388       .  S
O2056     Zr2062   2.377       .  S
O2056      H2091   0.966       .  S
O2057     Zr2060   2.397       .  S
O2057     Zr2077   2.395       .  S
O2057      H2094   0.966       .  S
O2058     Zr2061   2.386   1_545  S
O2058     Zr2077   2.390       .  S
Zr2059     O2084   2.441       .  S
Zr2059     O2078   2.427       .  S
Zr2059     O2086   2.453       .  S
Zr2059     O2074   2.438       .  S
Zr2059     O2065   2.396       .  S
Zr2059     O2066   2.405       .  S
Zr2059     O2067   2.390   1_565  S
Zr2059     O2068   2.378       .  S
Zr2060     O2079   2.436       .  S
Zr2060     O2072   2.435   1_655  S
Zr2060     O2073   2.410   1_655  S
Zr2060     O2066   2.405   1_545  S
Zr2060     O2067   2.399       .  S
Zr2061     O2063   2.435       .  S
Zr2061     O2085   2.436       .  S
Zr2061     O2087   2.404       .  S
Zr2061     O2065   2.385       .  S
Zr2061     O2068   2.382       .  S
Zr2062     O2088   2.436       .  S
Zr2062     O2089   2.436   1_655  S
Zr2062     O2064   2.437   1_655  S
Zr2062     O2065   2.389       .  S
Zr2062     O2066   2.383       .  S
O2063      H2100   0.990       .  S
O2064      H2095   0.990       .  S
O2064      H2109   0.990       .  S
O2066      H2092   0.967   1_655  S
O2067     Zr2077   2.375       .  S
O2068     Zr2077   2.373   1_565  S
O2068      H2093   0.966       .  S
C2069      C2294   1.483   1_655  S
C2070      C3005   1.478       .  S
C2071      C2126   1.493       .  S
O2072      H2108   0.990       .  S
O2073      C2075   1.280       .  A
O2074      C2075   1.284   1_665  A
C2075      C2213   1.460       .  S
O2076     Zr2077   2.439       .  S
O2076      H2105   0.991       .  S
Zr2077     O2080   2.436       .  S
Zr2077     O2081   2.441       .  S
Zr2077     O2082   2.417       .  S
O2078      C2083   1.284   1_565  A
O2079      H2096   0.990       .  S
O2079      H2111   0.990   1_655  S
O2080      H2097   0.990       .  S
O2081      H2101   0.990       .  S
O2081      H2110   0.989       .  S
O2082      C2083   1.280       .  A
C2083      C2150   1.486       .  S
O2084      H2103   0.990       .  S
O2084      H2107   0.990       .  S
O2085      H2099   0.990       .  S
O2085      H2106   0.990       .  S
O2086      C2090   1.288       .  A
O2087      C2090   1.281       .  A
O2088      H2098   0.990       .  S
O2089      H2102   0.990       .  S
C2090      C2789   1.490       .  S
C2113      C2114   1.404       .  A
C2113      C2118   1.402       .  A
C2113      H2123   1.083       .  S
C2114      C2119   1.494       .  S
C2114      C2115   1.412   1_655  A
C2115      C2116   1.403   1_455  A
C2115      O2120   1.372       .  S
C2116      C2117   1.409       .  A
C2116      H2121   1.083   1_655  S
C2117      C2118   1.414       .  A
C2118      O2122   1.371       .  S
C2119      C2124   1.412   1_655  A
C2119      C2128   1.404       .  A
O2120      H2136   0.991       .  S
O2122      H2133   0.992       .  S
C2124      C2125   1.405       .  A
C2124      O2129   1.373       .  S
C2125      C2126   1.408   1_455  A
C2125      H2130   1.083       .  S
C2126      C2127   1.414       .  A
C2127      C2128   1.399       .  A
C2127      O2131   1.371       .  S
C2128      H2132   1.083       .  S
O2129      H2134   0.992       .  S
O2131      H2135   0.992       .  S
C2137      C2138   1.400   1_565  A
C2137      C2142   1.400       .  A
C2137      H2147   1.084       .  S
C2138      C2143   1.478       .  S
C2138      C2139   1.405       .  A
C2139      C2140   1.399       .  A
C2139      O2144   1.372       .  S
C2140      C2141   1.409       .  A
C2140      H2145   1.083       .  S
C2141      C2142   1.417   1_545  A
C2142      O2146   1.371       .  S
C2143      C2148   1.406   1_545  A
C2143      C2152   1.400       .  A
O2144      H2160   0.992       .  S
O2146      H2157   0.992       .  S
C2148      C2149   1.398       .  A
C2148      O2153   1.372       .  S
C2149      C2150   1.408   1_565  A
C2149      H2154   1.083       .  S
C2150      C2151   1.416       .  A
C2151      C2152   1.399       .  A
C2151      O2155   1.372       .  S
C2152      H2156   1.084       .  S
O2153      H2158   0.992       .  S
O2155      H2159   0.992       .  S
C2161      C2162   1.401       .  A
C2161      C2166   1.404       .  A
C2161      H2171   1.084       .  S
C2162      C2167   1.484       .  S
C2162      C2163   1.405       .  A
C2163      C2164   1.403       .  A
C2163      O2168   1.371       .  S
C2164      C2165   1.411       .  A
C2164      H2169   1.083       .  S
C2165      C2166   1.416       .  A
C2166      O2170   1.372       .  S
C2167      C2172   1.404       .  A
C2167      C2176   1.401       .  A
O2168      H2184   0.992       .  S
O2170      H2181   0.992       .  S
C2172      C2173   1.403       .  A
C2172      O2177   1.371       .  S
C2173      C2174   1.411       .  A
C2173      H2178   1.083       .  S
C2174      C2175   1.419       .  A
C2175      C2176   1.406       .  A
C2175      O2179   1.371       .  S
C2176      H2180   1.084       .  S
O2177      H2182   0.992       .  S
O2179      H2183   0.992       .  S
C2185      C2186   1.402       .  A
C2185      C2190   1.400       .  A
C2185      H2195   1.083       .  S
C2186      C2191   1.486       .  S
C2186      C2187   1.407       .  A
C2187      C2188   1.402       .  A
C2187      O2192   1.371       .  S
C2188      C2189   1.410       .  A
C2188      H2193   1.083       .  S
C2189      C2190   1.416       .  A
C2190      O2194   1.371       .  S
C2191      C2196   1.408       .  A
C2191      C2200   1.402       .  A
O2192      H2208   0.992       .  S
O2194      H2205   0.992       .  S
C2196      C2197   1.402       .  A
C2196      O2201   1.372       .  S
C2197      C2198   1.407       .  A
C2197      H2202   1.083       .  S
C2198      C2199   1.415       .  A
C2199      C2200   1.401       .  A
C2199      O2203   1.371       .  S
C2200      H2204   1.084       .  S
O2201      H2206   0.992       .  S
O2203      H2207   0.991       .  S
C2209      C2210   1.403   1_565  A
C2209      C2214   1.395       .  A
C2209      H2219   1.083       .  S
C2210      C2215   1.478       .  S
C2210      C2211   1.411       .  A
C2211      C2212   1.398       .  A
C2211      O2216   1.372       .  S
C2212      C2213   1.400       .  A
C2212      H2217   1.084       .  S
C2213      C2214   1.404   1_545  A
C2214      O2218   1.372       .  S
C2215      C2220   1.409   1_545  A
C2215      C2224   1.404       .  A
O2216      H2232   0.992       .  S
O2218      H2229   0.992       .  S
C2220      C2221   1.397       .  A
C2220      O2225   1.373       .  S
C2221      C2222   1.402   1_565  A
C2221      H2226   1.084       .  S
C2222      C2223   1.406       .  A
C2223      C2224   1.397       .  A
C2223      O2227   1.372       .  S
C2224      H2228   1.083       .  S
O2225      H2230   0.992       .  S
O2227      H2231   0.991       .  S
C2233      C2234   1.402       .  A
C2233      C2238   1.404       .  A
C2233      H2243   1.084       .  S
C2234      C2239   1.479       .  S
C2234      C2235   1.403       .  A
C2235      C2236   1.397       .  A
C2235      O2240   1.372       .  S
C2236      C2237   1.409       .  A
C2236      H2241   1.083       .  S
C2237      C2238   1.416       .  A
C2238      O2242   1.371       .  S
C2239      C2244   1.405       .  A
C2239      C2248   1.401       .  A
O2240      H2256   0.992       .  S
O2242      H2253   0.992       .  S
C2244      C2245   1.399       .  A
C2244      O2249   1.371       .  S
C2245      C2246   1.408       .  A
C2245      H2250   1.083       .  S
C2246      C2247   1.416       .  A
C2247      C2248   1.401       .  A
C2247      O2251   1.371       .  S
C2248      H2252   1.084       .  S
O2249      H2254   0.992       .  S
O2251      H2255   0.992       .  S
C2257      C2258   1.402       .  A
C2257      C2262   1.399       .  A
C2257      H2267   1.083       .  S
C2258      C2263   1.481       .  S
C2258      C2259   1.407       .  A
C2259      C2260   1.398       .  A
C2259      O2264   1.372       .  S
C2260      C2261   1.407       .  A
C2260      H2265   1.083       .  S
C2261      C2262   1.414       .  A
C2262      O2266   1.372       .  S
C2263      C2268   1.406       .  A
C2263      C2272   1.403       .  A
O2264      H2280   0.992       .  S
O2266      H2277   0.992       .  S
C2268      C2269   1.399       .  A
C2268      O2273   1.372       .  S
C2269      C2270   1.408       .  A
C2269      H2274   1.083       .  S
C2270      C2271   1.412       .  A
C2271      C2272   1.400       .  A
C2271      O2275   1.371       .  S
C2272      H2276   1.084       .  S
O2273      H2278   0.992       .  S
O2275      H2279   0.992       .  S
C2281      C2282   1.402   1_556  A
C2281      C2286   1.397       .  A
C2281      H2291   1.083       .  S
C2282      C2287   1.482       .  S
C2282      C2283   1.411   1_554  A
C2283      C2284   1.399       .  A
C2283      O2288   1.372   1_556  S
C2284      C2285   1.404       .  A
C2284      H2289   1.084       .  S
C2285      C2286   1.412       .  A
C2286      O2290   1.372       .  S
C2287      C2292   1.409       .  A
C2287      C2296   1.401   1_545  A
O2288      H2304   0.992       .  S
O2290      H2301   0.992       .  S
C2292      C2293   1.399   1_455  A
C2292      O2297   1.372       .  S
C2293      C2294   1.405   1_655  A
C2293      H2298   1.084       .  S
C2294      C2295   1.416   1_545  A
C2295      C2296   1.396       .  A
C2295      O2299   1.372       .  S
C2296      H2300   1.084       .  S
O2297      H2302   0.992   1_455  S
O2299      H2303   0.992       .  S
C2305      C2306   1.400   1_455  A
C2305      C2310   1.399       .  A
C2305      H2315   1.084       .  S
C2306      C2311   1.465       .  S
C2306      C2307   1.402   1_545  A
C2307      C2308   1.390   1_655  A
C2307      O2312   1.372       .  S
C2308      C2309   1.406   1_565  A
C2308      H2313   1.084       .  S
C2309      C2310   1.413       .  A
C2310      O2314   1.372       .  S
C2311      C2316   1.403       .  A
C2311      C2320   1.398   1_545  A
O2312      H2328   0.992       .  S
O2314      H2325   0.992       .  S
C2316      C2317   1.397       .  A
C2316      O2321   1.372       .  S
C2317      C2318   1.407       .  A
C2317      H2322   1.083       .  S
C2318      C2319   1.414   1_545  A
C2319      C2320   1.392       .  A
C2319      O2323   1.372       .  S
C2320      H2324   1.084       .  S
O2321      H2326   0.992       .  S
O2323      H2327   0.992       .  S
C2329      C2330   1.401       .  A
C2329      C2334   1.399       .  A
C2329      H2339   1.083   1_545  S
C2330      C2335   1.481       .  S
C2330      C2331   1.408       .  A
C2331      C2332   1.401       .  A
C2331      O2336   1.372       .  S
C2332      C2333   1.407       .  A
C2332      H2337   1.084       .  S
C2333      C2334   1.412       .  A
C2334      O2338   1.372   1_545  S
C2335      C2340   1.406       .  A
C2335      C2344   1.401   1_545  A
O2336      H2352   0.992       .  S
O2338      H2349   0.992   1_565  S
C2340      C2341   1.400       .  A
C2340      O2345   1.372       .  S
C2341      C2342   1.409       .  A
C2341      H2346   1.083       .  S
C2342      C2343   1.417   1_545  A
C2343      C2344   1.401       .  A
C2343      O2347   1.372       .  S
C2344      H2348   1.084       .  S
O2345      H2350   0.992       .  S
O2347      H2351   0.992       .  S
C2353      C2354   1.401       .  A
C2353      C2358   1.402       .  A
C2353      H2363   1.084       .  S
C2354      C2359   1.480       .  S
C2354      C2355   1.404       .  A
C2355      C2356   1.402       .  A
C2355      O2360   1.372       .  S
C2356      C2357   1.412       .  A
C2356      H2361   1.083       .  S
C2357      C2358   1.416       .  A
C2358      O2362   1.371       .  S
C2359      C2364   1.406       .  A
C2359      C2368   1.398       .  A
O2360      H2376   0.991       .  S
O2362      H2373   0.992       .  S
C2364      C2365   1.403       .  A
C2364      O2369   1.371       .  S
C2365      C2366   1.411       .  A
C2365      H2370   1.083       .  S
C2366      C2367   1.418       .  A
C2367      C2368   1.398       .  A
C2367      O2371   1.370       .  S
C2368      H2372   1.084       .  S
O2369      H2374   0.992       .  S
O2371      H2375   0.992       .  S
C2377      C2378   1.400       .  A
C2377      C2382   1.397       .  A
C2377      H2387   1.084       .  S
C2378      C2383   1.457       .  S
C2378      C2379   1.398       .  A
C2379      C2380   1.388       .  A
C2379      O2384   1.372       .  S
C2380      C2381   1.408       .  A
C2380      H2385   1.083       .  S
C2381      C2382   1.411       .  A
C2382      O2386   1.371       .  S
C2383      C2388   1.401       .  A
C2383      C2392   1.397       .  A
O2384      H2400   0.992       .  S
O2386      H2397   0.992       .  S
C2388      C2389   1.389       .  A
C2388      O2393   1.372       .  S
C2389      C2390   1.407       .  A
C2389      H2394   1.084       .  S
C2390      C2391   1.413       .  A
C2391      C2392   1.395       .  A
C2391      O2395   1.372       .  S
C2392      H2396   1.084       .  S
O2393      H2398   0.992       .  S
O2395      H2399   0.992       .  S
C2401      C2402   1.404       .  A
C2401      C2406   1.404       .  A
C2401      H2411   1.084       .  S
C2402      C2407   1.491       .  S
C2402      C2403   1.408       .  A
C2403      C2404   1.404       .  A
C2403      O2408   1.372       .  S
C2404      C2405   1.410       .  A
C2404      H2409   1.083       .  S
C2405      C2406   1.416       .  A
C2406      O2410   1.371       .  S
C2407      C2412   1.410       .  A
C2407      C2416   1.401       .  A
O2408      H2424   0.992       .  S
O2410      H2421   0.992       .  S
C2412      C2413   1.406       .  A
C2412      O2417   1.371       .  S
C2413      C2414   1.410       .  A
C2413      H2418   1.083       .  S
C2414      C2415   1.416       .  A
C2415      C2416   1.402       .  A
C2415      O2419   1.371       .  S
C2416      H2420   1.084       .  S
O2417      H2422   0.992       .  S
O2419      H2423   0.992       .  S
C2425      C2426   1.406       .  A
C2425      C2430   1.404       .  A
C2425      H2435   1.083       .  S
C2426      C2431   1.489       .  S
C2426      C2427   1.407       .  A
C2427      C2428   1.401       .  A
C2427      O2432   1.372       .  S
C2428      C2429   1.410       .  A
C2428      H2433   1.084       .  S
C2429      C2430   1.410       .  A
C2430      O2434   1.371       .  S
C2431      C2436   1.407       .  A
C2431      C2440   1.406       .  A
O2432      H2448   0.992       .  S
O2434      H2445   0.991       .  S
C2436      C2437   1.400       .  A
C2436      O2441   1.372       .  S
C2437      C2438   1.407       .  A
C2437      H2442   1.084       .  S
C2438      C2439   1.411       .  A
C2439      C2440   1.406       .  A
C2439      O2443   1.371       .  S
C2440      H2444   1.083       .  S
O2441      H2446   0.992       .  S
O2443      H2447   0.992       .  S
C2449      C2450   1.404       .  A
C2449      C2454   1.404       .  A
C2449      H2459   1.083       .  S
C2450      C2455   1.480       .  S
C2450      C2451   1.405       .  A
C2451      C2452   1.393       .  A
C2451      O2456   1.372       .  S
C2452      C2453   1.407       .  A
C2452      H2457   1.083       .  S
C2453      C2454   1.415       .  A
C2454      O2458   1.371       .  S
C2455      C2460   1.406       .  A
C2455      C2464   1.401       .  A
O2456      H2472   0.992       .  S
O2458      H2469   0.992       .  S
C2460      C2461   1.403       .  A
C2460      O2465   1.372       .  S
C2461      C2462   1.409       .  A
C2461      H2466   1.083       .  S
C2462      C2463   1.414       .  A
C2463      C2464   1.396       .  A
C2463      O2467   1.372       .  S
C2464      H2468   1.084       .  S
O2465      H2470   0.992       .  S
O2467      H2471   0.992       .  S
C2473      C2474   1.401       .  A
C2473      C2478   1.398       .  A
C2473      H2483   1.084       .  S
C2474      C2479   1.474       .  S
C2474      C2475   1.403       .  A
C2475      C2476   1.396       .  A
C2475      O2480   1.372       .  S
C2476      C2477   1.411       .  A
C2476      H2481   1.083       .  S
C2477      C2478   1.413       .  A
C2478      O2482   1.371       .  S
C2479      C2484   1.404       .  A
C2479      C2488   1.402       .  A
O2480      H2496   0.992       .  S
O2482      H2493   0.992       .  S
C2484      C2485   1.396       .  A
C2484      O2489   1.372       .  S
C2485      C2486   1.407       .  A
C2485      H2490   1.084       .  S
C2486      C2487   1.413       .  A
C2487      C2488   1.400       .  A
C2487      O2491   1.372       .  S
C2488      H2492   1.084       .  S
O2489      H2494   0.992       .  S
O2491      H2495   0.992       .  S
C2497      C2498   1.399       .  A
C2497      C2502   1.400       .  A
C2497      H2507   1.084       .  S
C2498      C2503   1.475       .  S
C2498      C2499   1.404       .  A
C2499      C2500   1.399       .  A
C2499      O2504   1.372       .  S
C2500      C2501   1.410       .  A
C2500      H2505   1.083       .  S
C2501      C2502   1.416       .  A
C2502      O2506   1.372       .  S
C2503      C2508   1.404       .  A
C2503      C2512   1.401       .  A
O2504      H2520   0.992       .  S
O2506      H2517   0.992       .  S
C2508      C2509   1.399       .  A
C2508      O2513   1.372       .  S
C2509      C2510   1.407       .  A
C2509      H2514   1.084       .  S
C2510      C2511   1.413       .  A
C2511      C2512   1.400       .  A
C2511      O2515   1.372       .  S
C2512      H2516   1.084       .  S
O2513      H2518   0.992       .  S
O2515      H2519   0.992       .  S
C2521      C2522   1.402       .  A
C2521      C2526   1.401       .  A
C2521      H2531   1.084       .  S
C2522      C2527   1.483       .  S
C2522      C2523   1.406       .  A
C2523      C2524   1.401       .  A
C2523      O2528   1.373       .  S
C2524      C2525   1.408       .  A
C2524      H2529   1.083       .  S
C2525      C2526   1.416       .  A
C2526      O2530   1.372       .  S
C2527      C2532   1.408       .  A
C2527      C2536   1.402       .  A
O2528      H2544   0.992       .  S
O2530      H2541   0.992       .  S
C2532      C2533   1.397       .  A
C2532      O2537   1.372       .  S
C2533      C2534   1.407       .  A
C2533      H2538   1.083       .  S
C2534      C2535   1.416       .  A
C2535      C2536   1.402       .  A
C2535      O2539   1.372       .  S
C2536      H2540   1.084       .  S
O2537      H2542   0.992       .  S
O2539      H2543   0.992       .  S
C2545      C2546   1.406       .  A
C2545      C2550   1.406       .  A
C2545      H2555   1.083       .  S
C2546      C2551   1.484       .  S
C2546      C2547   1.407       .  A
C2547      C2548   1.394       .  A
C2547      O2552   1.372       .  S
C2548      C2549   1.408       .  A
C2548      H2553   1.083       .  S
C2549      C2550   1.412       .  A
C2550      O2554   1.371       .  S
C2551      C2556   1.407       .  A
C2551      C2560   1.407       .  A
O2552      H2568   0.992       .  S
O2554      H2565   0.992       .  S
C2556      C2557   1.397       .  A
C2556      O2561   1.372       .  S
C2557      C2558   1.405       .  A
C2557      H2562   1.084       .  S
C2558      C2559   1.408       .  A
C2559      C2560   1.404       .  A
C2559      O2563   1.371       .  S
C2560      H2564   1.084       .  S
O2561      H2566   0.992       .  S
O2563      H2567   0.992       .  S
C2569      C2570   1.405       .  A
C2569      C2574   1.404       .  A
C2569      H2579   1.083       .  S
C2570      C2575   1.498       .  S
C2570      C2571   1.413       .  A
C2571      C2572   1.403       .  A
C2571      O2576   1.372       .  S
C2572      C2573   1.406       .  A
C2572      H2577   1.083       .  S
C2573      C2574   1.415       .  A
C2574      O2578   1.371       .  S
C2575      C2580   1.414       .  A
C2575      C2584   1.404       .  A
O2576      H2592   0.992       .  S
O2578      H2589   0.992       .  S
C2580      C2581   1.406       .  A
C2580      O2585   1.372       .  S
C2581      C2582   1.407       .  A
C2581      H2586   1.083       .  S
C2582      C2583   1.415       .  A
C2583      C2584   1.400       .  A
C2583      O2587   1.372       .  S
C2584      H2588   1.083       .  S
O2585      H2590   0.992       .  S
O2587      H2591   0.992       .  S
C2593      C2594   1.400       .  A
C2593      C2598   1.402       .  A
C2593      H2603   1.084       .  S
C2594      C2599   1.467       .  S
C2594      C2595   1.400       .  A
C2595      C2596   1.392       .  A
C2595      O2600   1.372       .  S
C2596      C2597   1.410       .  A
C2596      H2601   1.083       .  S
C2597      C2598   1.414       .  A
C2598      O2602   1.371       .  S
C2599      C2604   1.400       .  A
C2599      C2608   1.403       .  A
O2600      H2616   0.992       .  S
O2602      H2613   0.992       .  S
C2604      C2605   1.390       .  A
C2604      O2609   1.372       .  S
C2605      C2606   1.407       .  A
C2605      H2610   1.083       .  S
C2606      C2607   1.410       .  A
C2607      C2608   1.401       .  A
C2607      O2611   1.372       .  S
C2608      H2612   1.084       .  S
O2609      H2614   0.992       .  S
O2611      H2615   0.992       .  S
C2617      C2618   1.407       .  A
C2617      C2622   1.403       .  A
C2617      H2627   1.084       .  S
C2618      C2623   1.488       .  S
C2618      C2619   1.408       .  A
C2619      C2620   1.398       .  A
C2619      O2624   1.372       .  S
C2620      C2621   1.406       .  A
C2620      H2625   1.084       .  S
C2621      C2622   1.410       .  A
C2622      O2626   1.371       .  S
C2623      C2628   1.408       .  A
C2623      C2632   1.406       .  A
O2624      H2640   0.992       .  S
O2626      H2637   0.991       .  S
C2628      C2629   1.397       .  A
C2628      O2633   1.372       .  S
C2629      C2630   1.407       .  A
C2629      H2634   1.084       .  S
C2630      C2631   1.413       .  A
C2631      C2632   1.406       .  A
C2631      O2635   1.371       .  S
C2632      H2636   1.083       .  S
O2633      H2638   0.992       .  S
O2635      H2639   0.992       .  S
C2641      C2642   1.398       .  A
C2641      C2646   1.390       .  A
C2641      H2651   1.084       .  S
C2642      C2647   1.463       .  S
C2642      C2643   1.402       .  A
C2643      C2644   1.395       .  A
C2643      O2648   1.372       .  S
C2644      C2645   1.409       .  A
C2644      H2649   1.083       .  S
C2645      C2646   1.413       .  A
C2646      O2650   1.372       .  S
C2647      C2652   1.399       .  A
C2647      C2656   1.402       .  A
O2648      H2664   0.992       .  S
O2650      H2661   0.992       .  S
C2652      C2653   1.386       .  A
C2652      O2657   1.373       .  S
C2653      C2654   1.408       .  A
C2653      H2658   1.083       .  S
C2654      C2655   1.412       .  A
C2655      C2656   1.399       .  A
C2655      O2659   1.372       .  S
C2656      H2660   1.084       .  S
O2657      H2662   0.992       .  S
O2659      H2663   0.992       .  S
C2665      C2666   1.401       .  A
C2665      C2670   1.401       .  A
C2665      H2675   1.083   1_655  S
C2666      C2671   1.487       .  S
C2666      C2667   1.408       .  A
C2667      C2668   1.401       .  A
C2667      O2672   1.372       .  S
C2668      C2669   1.408       .  A
C2668      H2673   1.083       .  S
C2669      C2670   1.418       .  A
C2670      O2674   1.371   1_655  S
C2671      C2676   1.407       .  A
C2671      C2680   1.403       .  A
O2672      H2688   0.992       .  S
O2674      H2685   0.992       .  S
C2676      C2677   1.400       .  A
C2676      O2681   1.372       .  S
C2677      C2678   1.409       .  A
C2677      H2682   1.083       .  S
C2678      C2679   1.415       .  A
C2679      C2680   1.403       .  A
C2679      O2683   1.371   1_655  S
C2680      H2684   1.084   1_655  S
O2681      H2686   0.992       .  S
O2683      H2687   0.992   1_455  S
C2689      C2690   1.402       .  A
C2689      C2694   1.399       .  A
C2689      H2699   1.083       .  S
C2690      C2695   1.488       .  S
C2690      C2691   1.411       .  A
C2691      C2692   1.404       .  A
C2691      O2696   1.372       .  S
C2692      C2693   1.406       .  A
C2692      H2697   1.083       .  S
C2693      C2694   1.414       .  A
C2694      O2698   1.372       .  S
C2695      C2700   1.411       .  A
C2695      C2704   1.401       .  A
O2696      H2712   0.992   1_554  S
O2698      H2709   0.992       .  S
C2700      C2701   1.407       .  A
C2700      O2705   1.372       .  S
C2701      C2702   1.406       .  A
C2701      H2706   1.083       .  S
C2702      C2703   1.414       .  A
C2703      C2704   1.397       .  A
C2703      O2707   1.372       .  S
C2704      H2708   1.084       .  S
O2705      H2710   0.992       .  S
O2707      H2711   0.992       .  S
C2713      C2714   1.402       .  A
C2713      C2718   1.398       .  A
C2713      H2723   1.084       .  S
C2714      C2719   1.472       .  S
C2714      C2715   1.404       .  A
C2715      C2716   1.396       .  A
C2715      O2720   1.372       .  S
C2716      C2717   1.406       .  A
C2716      H2721   1.084       .  S
C2717      C2718   1.410       .  A
C2718      O2722   1.372       .  S
C2719      C2724   1.402       .  A
C2719      C2728   1.403       .  A
O2720      H2736   0.992       .  S
O2722      H2733   0.992       .  S
C2724      C2725   1.394       .  A
C2724      O2729   1.372       .  S
C2725      C2726   1.406       .  A
C2725      H2730   1.084       .  S
C2726      C2727   1.411       .  A
C2727      C2728   1.401       .  A
C2727      O2731   1.372       .  S
C2728      H2732   1.084       .  S
O2729      H2734   0.992       .  S
O2731      H2735   0.992       .  S
C2737      C2738   1.402       .  A
C2737      C2742   1.395       .  A
C2737      H2747   1.084       .  S
C2738      C2743   1.472       .  S
C2738      C2739   1.407       .  A
C2739      C2740   1.399       .  A
C2739      O2744   1.373       .  S
C2740      C2741   1.403       .  A
C2740      H2745   1.084       .  S
C2741      C2742   1.406       .  A
C2742      O2746   1.372       .  S
C2743      C2748   1.409       .  A
C2743      C2752   1.399       .  A
O2744      H2760   0.992       .  S
O2746      H2757   0.992       .  S
C2748      C2749   1.398       .  A
C2748      O2753   1.371       .  S
C2749      C2750   1.401       .  A
C2749      H2754   1.084       .  S
C2750      C2751   1.412       .  A
C2751      C2752   1.394       .  A
C2751      O2755   1.372       .  S
C2752      H2756   1.084       .  S
O2753      H2758   0.992       .  S
O2755      H2759   0.992       .  S
C2761      C2762   1.398       .  A
C2761      C2766   1.397       .  A
C2761      H2771   1.084       .  S
C2762      C2767   1.472       .  S
C2762      C2763   1.404       .  A
C2763      C2764   1.399       .  A
C2763      O2768   1.372       .  S
C2764      C2765   1.410       .  A
C2764      H2769   1.083       .  S
C2765      C2766   1.416       .  A
C2766      O2770   1.371       .  S
C2767      C2772   1.403       .  A
C2767      C2776   1.399       .  A
O2768      H2784   0.992       .  S
O2770      H2781   0.992       .  S
C2772      C2773   1.397       .  A
C2772      O2777   1.372       .  S
C2773      C2774   1.409       .  A
C2773      H2778   1.083       .  S
C2774      C2775   1.417       .  A
C2775      C2776   1.400       .  A
C2775      O2779   1.371       .  S
C2776      H2780   1.084       .  S
O2777      H2782   0.992       .  S
O2779      H2783   0.992       .  S
C2785      C2786   1.406       .  A
C2785      C2790   1.407       .  A
C2785      H2795   1.083       .  S
C2786      C2791   1.484       .  S
C2786      C2787   1.406       .  A
C2787      C2788   1.395       .  A
C2787      O2792   1.372       .  S
C2788      C2789   1.409       .  A
C2788      H2793   1.084       .  S
C2789      C2790   1.413       .  A
C2790      O2794   1.371       .  S
C2791      C2796   1.406       .  A
C2791      C2800   1.406       .  A
O2792      H2808   0.992       .  S
O2794      H2805   0.992       .  S
C2796      C2797   1.398       .  A
C2796      O2801   1.372       .  S
C2797      C2798   1.407       .  A
C2797      H2802   1.084       .  S
C2798      C2799   1.409       .  A
C2799      C2800   1.405       .  A
C2799      O2803   1.371       .  S
C2800      H2804   1.084       .  S
O2801      H2806   0.992       .  S
O2803      H2807   0.992       .  S
C2809      C2810   1.398       .  A
C2809      C2814   1.394       .  A
C2809      H2819   1.084       .  S
C2810      C2815   1.470       .  S
C2810      C2811   1.405       .  A
C2811      C2812   1.400       .  A
C2811      O2816   1.371       .  S
C2812      C2813   1.406       .  A
C2812      H2817   1.083       .  S
C2813      C2814   1.414       .  A
C2814      O2818   1.372       .  S
C2815      C2820   1.403       .  A
C2815      C2824   1.403   1_655  A
O2816      H2832   0.992       .  S
O2818      H2829   0.992       .  S
C2820      C2821   1.393   1_655  A
C2820      O2825   1.372       .  S
C2821      C2822   1.405       .  A
C2821      H2826   1.084       .  S
C2822      C2823   1.411       .  A
C2823      C2824   1.403       .  A
C2823      O2827   1.372       .  S
C2824      H2828   1.084       .  S
O2825      H2830   0.992       .  S
O2827      H2831   0.992       .  S
C2833      C2834   1.404       .  A
C2833      C2838   1.406       .  A
C2833      H2843   1.084       .  S
C2834      C2839   1.492       .  S
C2834      C2835   1.408       .  A
C2835      C2836   1.406       .  A
C2835      O2840   1.372       .  S
C2836      C2837   1.410       .  A
C2836      H2841   1.083       .  S
C2837      C2838   1.415       .  A
C2838      O2842   1.371       .  S
C2839      C2844   1.407       .  A
C2839      C2848   1.403       .  A
O2840      H2856   0.992       .  S
O2842      H2853   0.992       .  S
C2844      C2845   1.405       .  A
C2844      O2849   1.371       .  S
C2845      C2846   1.410       .  A
C2845      H2850   1.083       .  S
C2846      C2847   1.420       .  A
C2847      C2848   1.407       .  A
C2847      O2851   1.372       .  S
C2848      H2852   1.084       .  S
O2849      H2854   0.992       .  S
O2851      H2855   0.992       .  S
C2857      C2858   1.402       .  A
C2857      C2862   1.405       .  A
C2857      H2867   1.084       .  S
C2858      C2863   1.484       .  S
C2858      C2859   1.406       .  A
C2859      C2860   1.400       .  A
C2859      O2864   1.372       .  S
C2860      C2861   1.409       .  A
C2860      H2865   1.083       .  S
C2861      C2862   1.418       .  A
C2862      O2866   1.371       .  S
C2863      C2868   1.405       .  A
C2863      C2872   1.403       .  A
O2864      H2880   0.992       .  S
O2866      H2877   0.992       .  S
C2868      C2869   1.401       .  A
C2868      O2873   1.372       .  S
C2869      C2870   1.410       .  A
C2869      H2874   1.083       .  S
C2870      C2871   1.415       .  A
C2871      C2872   1.405       .  A
C2871      O2875   1.371       .  S
C2872      H2876   1.084       .  S
O2873      H2878   0.992       .  S
O2875      H2879   0.992       .  S
C2881      C2882   1.407       .  A
C2881      C2886   1.405       .  A
C2881      H2891   1.084       .  S
C2882      C2887   1.491       .  S
C2882      C2883   1.410       .  A
C2883      C2884   1.400       .  A
C2883      O2888   1.372       .  S
C2884      C2885   1.406       .  A
C2884      H2889   1.084       .  S
C2885      C2886   1.411       .  A
C2886      O2890   1.371       .  S
C2887      C2892   1.412       .  A
C2887      C2896   1.403       .  A
O2888      H2904   0.992       .  S
O2890      H2901   0.992       .  S
C2892      C2893   1.408       .  A
C2892      O2897   1.373       .  S
C2893      C2894   1.405       .  A
C2893      H2898   1.083       .  S
C2894      C2895   1.413       .  A
C2895      C2896   1.397       .  A
C2895      O2899   1.372       .  S
C2896      H2900   1.084       .  S
O2897      H2902   0.992       .  S
O2899      H2903   0.992       .  S
C2905      C2906   1.399   1_556  A
C2905      C2910   1.396       .  A
C2905      H2915   1.084       .  S
C2906      C2911   1.483       .  S
C2906      C2907   1.411       .  A
C2907      C2908   1.402   1_554  A
C2907      O2912   1.371       .  S
C2908      C2909   1.403       .  A
C2908      H2913   1.083       .  S
C2909      C2910   1.416       .  A
C2910      O2914   1.372       .  S
C2911      C2916   1.411       .  A
C2911      C2920   1.399       .  A
O2912      H2928   0.992       .  S
O2914      H2925   0.992       .  S
C2916      C2917   1.404       .  A
C2916      O2921   1.372       .  S
C2917      C2918   1.407       .  A
C2917      H2922   1.083       .  S
C2918      C2919   1.416       .  A
C2919      C2920   1.396       .  A
C2919      O2923   1.372       .  S
C2920      H2924   1.084       .  S
O2921      H2926   0.992       .  S
O2923      H2927   0.992       .  S
C2929      C2930   1.407       .  A
C2929      C2934   1.404       .  A
C2929      H2939   1.083       .  S
C2930      C2935   1.480       .  S
C2930      C2931   1.404       .  A
C2931      C2932   1.391       .  A
C2931      O2936   1.372       .  S
C2932      C2933   1.409       .  A
C2932      H2937   1.084       .  S
C2933      C2934   1.410       .  A
C2934      O2938   1.371       .  S
C2935      C2940   1.406       .  A
C2935      C2944   1.403       .  A
O2936      H2952   0.991       .  S
O2938      H2949   0.992       .  S
C2940      C2941   1.400       .  A
C2940      O2945   1.372       .  S
C2941      C2942   1.407       .  A
C2941      H2946   1.083       .  S
C2942      C2943   1.412       .  A
C2943      C2944   1.397       .  A
C2943      O2947   1.372       .  S
C2944      H2948   1.084       .  S
O2945      H2950   0.992       .  S
O2947      H2951   0.992       .  S
C2953      C2954   1.404       .  A
C2953      C2958   1.401       .  A
C2953      H2963   1.084       .  S
C2954      C2959   1.491       .  S
C2954      C2955   1.411       .  A
C2955      C2956   1.407       .  A
C2955      O2960   1.373       .  S
C2956      C2957   1.405       .  A
C2956      H2961   1.084       .  S
C2957      C2958   1.410       .  A
C2958      O2962   1.371   1_554  S
C2959      C2964   1.407   1_554  A
C2959      C2968   1.406       .  A
O2960      H2976   0.992       .  S
O2962      H2973   0.992   1_556  S
C2964      C2965   1.400       .  A
C2964      O2969   1.373       .  S
C2965      C2966   1.410       .  A
C2965      H2970   1.083       .  S
C2966      C2967   1.415   1_556  A
C2967      C2968   1.408       .  A
C2967      O2971   1.371       .  S
C2968      H2972   1.083       .  S
O2969      H2974   0.992       .  S
O2971      H2975   0.992       .  S
C2977      C2978   1.403       .  A
C2977      C2982   1.400       .  A
C2977      H2987   1.083       .  S
C2978      C2983   1.492       .  S
C2978      C2979   1.411   1_545  A
C2979      C2980   1.404       .  A
C2979      O2984   1.372       .  S
C2980      C2981   1.407   1_565  A
C2980      H2985   1.083       .  S
C2981      C2982   1.416       .  A
C2982      O2986   1.372       .  S
C2983      C2988   1.412       .  A
C2983      C2992   1.403   1_545  A
O2984      H3000   0.992       .  S
O2986      H2997   0.992       .  S
C2988      C2989   1.405       .  A
C2988      O2993   1.372       .  S
C2989      C2990   1.403       .  A
C2989      H2994   1.084       .  S
C2990      C2991   1.414   1_545  A
C2991      C2992   1.401       .  A
C2991      O2995   1.372       .  S
C2992      H2996   1.083       .  S
O2993      H2998   0.992       .  S
O2995      H2999   0.992       .  S
C3001      C3002   1.396   1_565  A
C3001      C3006   1.392       .  A
C3001      H3011   1.084       .  S
C3002      C3007   1.465       .  S
C3002      C3003   1.403       .  A
C3003      C3004   1.398       .  A
C3003      O3008   1.372       .  S
C3004      C3005   1.407       .  A
C3004      H3009   1.083       .  S
C3005      C3006   1.417   1_545  A
C3006      O3010   1.372       .  S
C3007      C3012   1.403       .  A
C3007      C3016   1.404       .  A
O3008      H3024   0.992       .  S
O3010      H3021   0.992       .  S
C3012      C3013   1.390       .  A
C3012      O3017   1.372       .  S
C3013      C3014   1.402       .  A
C3013      H3018   1.084       .  S
C3014      C3015   1.405       .  A
C3015      C3016   1.399       .  A
C3015      O3019   1.372       .  S
C3016      H3020   1.084       .  S
O3017      H3022   0.992   1_545  S
O3019      H3023   0.992   1_545  S
C3025      C3026   1.405       .  A
C3025      C3030   1.404       .  A
C3025      H3035   1.084       .  S
C3026      C3031   1.489       .  S
C3026      C3027   1.408       .  A
C3027      C3028   1.400       .  A
C3027      O3032   1.373       .  S
C3028      C3029   1.409       .  A
C3028      H3033   1.083       .  S
C3029      C3030   1.415       .  A
C3030      O3034   1.371       .  S
C3031      C3036   1.408       .  A
C3031      C3040   1.403       .  A
O3032      H3048   0.992       .  S
O3034      H3045   0.992       .  S
C3036      C3037   1.401       .  A
C3036      O3041   1.372       .  S
C3037      C3038   1.409       .  A
C3037      H3042   1.083       .  S
C3038      C3039   1.414       .  A
C3039      C3040   1.403       .  A
C3039      O3043   1.371       .  S
C3040      H3044   1.084       .  S
O3041      H3046   0.992       .  S
O3043      H3047   0.992       .  S
C3049      C3050   1.399       .  A
C3049      C3054   1.396       .  A
C3049      H3059   1.084       .  S
C3050      C3055   1.483       .  S
C3050      C3051   1.409       .  A
C3051      C3052   1.407       .  A
C3051      O3056   1.373       .  S
C3052      C3053   1.407       .  A
C3052      H3057   1.083       .  S
C3053      C3054   1.417       .  A
C3054      O3058   1.372       .  S
C3055      C3060   1.406       .  A
C3055      C3064   1.407       .  A
O3056      H3072   0.992       .  S
O3058      H3069   0.992       .  S
C3060      C3061   1.396       .  A
C3060      O3065   1.373       .  S
C3061      C3062   1.408       .  A
C3061      H3066   1.084       .  S
C3062      C3063   1.410       .  A
C3063      C3064   1.406       .  A
C3063      O3067   1.371       .  S
C3064      H3068   1.083       .  S
O3065      H3070   0.992       .  S
O3067      H3071   0.992       .  S
C3073      C3074   1.396       .  A
C3073      C3078   1.388       .  A
C3073      H3083   1.084       .  S
C3074      C3079   1.465       .  S
C3074      C3075   1.406       .  A
C3075      C3076   1.399       .  A
C3075      O3080   1.372       .  S
C3076      C3077   1.405       .  A
C3076      H3081   1.084       .  S
C3077      C3078   1.414       .  A
C3078      O3082   1.371       .  S
C3079      C3084   1.404       .  A
C3079      C3088   1.399       .  A
O3080      H3096   0.992       .  S
O3082      H3093   0.992       .  S
C3084      C3085   1.395       .  A
C3084      O3089   1.371       .  S
C3085      C3086   1.406       .  A
C3085      H3090   1.083       .  S
C3086      C3087   1.411       .  A
C3087      C3088   1.390       .  A
C3087      O3091   1.373       .  S
C3088      H3092   1.084       .  S
O3089      H3094   0.991       .  S
O3091      H3095   0.992       .  S
C3097      C3098   1.404       .  A
C3097      C3102   1.400       .  A
C3097      H3107   1.083       .  S
C3098      C3103   1.481       .  S
C3098      C3099   1.407       .  A
C3099      C3100   1.395       .  A
C3099      O3104   1.372       .  S
C3100      C3101   1.406       .  A
C3100      H3105   1.083       .  S
C3101      C3102   1.414       .  A
C3102      O3106   1.372       .  S
C3103      C3108   1.407       .  A
C3103      C3112   1.404       .  A
O3104      H3120   0.992       .  S
O3106      H3117   0.992       .  S
C3108      C3109   1.398       .  A
C3108      O3113   1.372       .  S
C3109      C3110   1.407       .  A
C3109      H3114   1.084       .  S
C3110      C3111   1.411       .  A
C3111      C3112   1.398       .  A
C3111      O3115   1.372       .  S
C3112      H3116   1.083       .  S
O3113      H3118   0.992       .  S
O3115      H3119   0.992       .  S
C3121      C3122   1.401       .  A
C3121      C3126   1.397       .  A
C3121      H3131   1.084       .  S
C3122      C3127   1.493       .  S
C3122      C3123   1.414       .  A
C3123      C3124   1.412       .  A
C3123      O3128   1.374       .  S
C3124      C3125   1.406       .  A
C3124      H3129   1.083       .  S
C3125      C3126   1.414       .  A
C3126      O3130   1.372       .  S
C3127      C3132   1.408       .  A
C3127      C3136   1.409       .  A
O3128      H3144   0.992       .  S
O3130      H3141   0.992       .  S
C3132      C3133   1.399       .  A
C3132      O3137   1.372       .  S
C3133      C3134   1.407       .  A
C3133      H3138   1.084       .  S
C3134      C3135   1.412       .  A
C3135      C3136   1.409       .  A
C3135      O3139   1.371       .  S
C3136      H3140   1.084       .  S
O3137      H3142   0.992       .  S
O3139      H3143   0.992       .  S
C3145      C3146   1.400   1_565  A
C3145      C3150   1.394       .  A
C3145      H3155   1.084       .  S
C3146      C3151   1.460       .  S
C3146      C3147   1.401       .  A
C3147      C3148   1.390       .  A
C3147      O3152   1.373       .  S
C3148      C3149   1.406       .  A
C3148      H3153   1.084       .  S
C3149      C3150   1.410   1_545  A
C3150      O3154   1.371       .  S
C3151      C3156   1.401       .  A
C3151      C3160   1.401       .  A
O3152      H3168   0.992       .  S
O3154      H3165   0.992       .  S
C3156      C3157   1.389       .  A
C3156      O3161   1.372       .  S
C3157      C3158   1.407       .  A
C3157      H3162   1.084       .  S
C3158      C3159   1.408       .  A
C3159      C3160   1.394       .  A
C3159      O3163   1.371       .  S
C3160      H3164   1.084       .  S
O3161      H3166   0.992       .  S
O3163      H3167   0.992       .  S
C3169      C3170   1.405       .  A
C3169      C3174   1.404       .  A
C3169      H3179   1.083   1_545  S
C3170      C3175   1.487       .  S
C3170      C3171   1.408       .  A
C3171      C3172   1.398       .  A
C3171      O3176   1.372       .  S
C3172      C3173   1.405       .  A
C3172      H3177   1.084       .  S
C3173      C3174   1.413       .  A
C3174      O3178   1.372   1_545  S
C3175      C3180   1.407       .  A
C3175      C3184   1.403   1_545  A
O3176      H3192   0.992       .  S
O3178      H3189   0.992   1_565  S
C3180      C3181   1.402       .  A
C3180      O3185   1.372       .  S
C3181      C3182   1.411       .  A
C3181      H3186   1.083       .  S
C3182      C3183   1.416   1_545  A
C3183      C3184   1.401       .  A
C3183      O3187   1.371       .  S
C3184      H3188   1.084       .  S
O3185      H3190   0.992       .  S
O3187      H3191   0.992       .  S
C3193      C3194   1.402       .  A
C3193      C3198   1.404       .  A
C3193      H3203   1.084       .  S
C3194      C3199   1.490       .  S
C3194      C3195   1.408       .  A
C3195      C3196   1.405       .  A
C3195      O3200   1.372       .  S
C3196      C3197   1.409       .  A
C3196      H3201   1.083       .  S
C3197      C3198   1.416       .  A
C3198      O3202   1.372       .  S
C3199      C3204   1.407       .  A
C3199      C3208   1.404       .  A
O3200      H3216   0.992       .  S
O3202      H3213   0.992       .  S
C3204      C3205   1.402       .  A
C3204      O3209   1.372       .  S
C3205      C3206   1.410       .  A
C3205      H3210   1.083       .  S
C3206      C3207   1.418       .  A
C3207      C3208   1.406       .  A
C3207      O3211   1.371       .  S
C3208      H3212   1.084       .  S
O3209      H3214   0.992       .  S
O3211      H3215   0.992       .  S
C3217      C3218   1.403       .  A
C3217      C3222   1.402       .  A
C3217      H3227   1.083       .  S
C3218      C3223   1.497       .  S
C3218      C3219   1.414       .  A
C3219      C3220   1.408       .  A
C3219      O3224   1.372       .  S
C3220      C3221   1.405       .  A
C3220      H3225   1.084       .  S
C3221      C3222   1.412       .  A
C3222      O3226   1.372       .  S
C3223      C3228   1.412       .  A
C3223      C3232   1.402   1_545  A
O3224      H3240   0.992       .  S
O3226      H3237   0.992       .  S
C3228      C3229   1.407       .  A
C3228      O3233   1.372       .  S
C3229      C3230   1.408       .  A
C3229      H3234   1.083       .  S
C3230      C3231   1.419   1_545  A
C3231      C3232   1.403       .  A
C3231      O3235   1.372       .  S
C3232      H3236   1.084       .  S
O3233      H3238   0.992       .  S
O3235      H3239   0.992       .  S
C3241      C3242   1.403       .  A
C3241      C3246   1.391       .  A
C3241      H3251   1.084       .  S
C3242      C3247   1.470       .  S
C3242      C3243   1.405   1_545  A
C3243      C3244   1.398       .  A
C3243      O3248   1.373       .  S
C3244      C3245   1.406   1_565  A
C3244      H3249   1.084       .  S
C3245      C3246   1.406       .  A
C3246      O3250   1.373       .  S
C3247      C3252   1.409   1_545  A
C3247      C3256   1.395       .  A
O3248      H3264   0.992       .  S
O3250      H3261   0.992       .  S
C3252      C3253   1.401       .  A
C3252      O3257   1.371       .  S
C3253      C3254   1.405   1_565  A
C3253      H3258   1.083       .  S
C3254      C3255   1.415       .  A
C3255      C3256   1.386       .  A
C3255      O3259   1.371       .  S
C3256      H3260   1.084       .  S
O3257      H3262   0.992       .  S
O3259      H3263   0.992       .  S
C3265      C3266   1.400   1_565  A
C3265      C3270   1.395       .  A
C3265      H3275   1.084       .  S
C3266      C3271   1.476       .  S
C3266      C3267   1.408       .  A
C3267      C3268   1.401       .  A
C3267      O3272   1.372       .  S
C3268      C3269   1.406       .  A
C3268      H3273   1.083       .  S
C3269      C3270   1.412   1_545  A
C3270      O3274   1.372       .  S
C3271      C3276   1.405   1_545  A
C3271      C3280   1.404       .  A
O3272      H3288   0.992       .  S
O3274      H3285   0.992       .  S
C3276      C3277   1.392       .  A
C3276      O3281   1.372       .  S
C3277      C3278   1.408   1_565  A
C3277      H3282   1.083       .  S
C3278      C3279   1.412       .  A
C3279      C3280   1.402       .  A
C3279      O3283   1.371       .  S
C3280      H3284   1.084       .  S
O3281      H3286   0.992       .  S
O3283      H3287   0.992       .  S
C3289      C3290   1.401       .  A
C3289      C3294   1.397       .  A
C3289      H3299   1.084       .  S
C3290      C3295   1.478       .  S
C3290      C3291   1.409       .  A
C3291      C3292   1.401       .  A
C3291      O3296   1.373       .  S
C3292      C3293   1.403       .  A
C3292      H3297   1.084       .  S
C3293      C3294   1.412       .  A
C3294      O3298   1.372       .  S
C3295      C3300   1.403       .  A
C3295      C3304   1.405       .  A
O3296      H3312   0.992       .  S
O3298      H3309   0.992       .  S
C3300      C3301   1.396       .  A
C3300      O3305   1.373       .  S
C3301      C3302   1.409       .  A
C3301      H3306   1.083       .  S
C3302      C3303   1.412       .  A
C3303      C3304   1.404       .  A
C3303      O3307   1.371       .  S
C3304      H3308   1.084       .  S
O3305      H3310   0.992       .  S
O3307      H3311   0.992       .  S
C3313      C3314   1.402       .  A
C3313      C3318   1.399       .  A
C3313      H3323   1.084       .  S
C3314      C3319   1.470       .  S
C3314      C3315   1.403       .  A
C3315      C3316   1.391       .  A
C3315      O3320   1.373       .  S
C3316      C3317   1.408       .  A
C3316      H3321   1.084       .  S
C3317      C3318   1.413       .  A
C3318      O3322   1.371       .  S
C3319      C3324   1.403       .  A
C3319      C3328   1.401       .  A
O3320      H3336   0.992       .  S
O3322      H3333   0.992       .  S
C3324      C3325   1.391       .  A
C3324      O3329   1.372       .  S
C3325      C3326   1.407       .  A
C3325      H3330   1.083       .  S
C3326      C3327   1.413       .  A
C3327      C3328   1.399       .  A
C3327      O3331   1.371       .  S
C3328      H3332   1.084       .  S
O3329      H3334   0.991       .  S
O3331      H3335   0.992       .  S
C3337      C3338   1.401       .  A
C3337      C3342   1.399       .  A
C3337      H3347   1.084       .  S
C3338      C3343   1.479       .  S
C3338      C3339   1.406       .  A
C3339      C3340   1.398       .  A
C3339      O3344   1.372       .  S
C3340      C3341   1.407       .  A
C3340      H3345   1.083       .  S
C3341      C3342   1.416       .  A
C3342      O3346   1.372       .  S
C3343      C3348   1.405       .  A
C3343      C3352   1.402       .  A
O3344      H3360   0.992       .  S
O3346      H3357   0.992       .  S
C3348      C3349   1.396       .  A
C3348      O3353   1.372       .  S
C3349      C3350   1.407       .  A
C3349      H3354   1.083       .  S
C3350      C3351   1.417       .  A
C3351      C3352   1.402       .  A
C3351      O3355   1.372       .  S
C3352      H3356   1.084       .  S
O3353      H3358   0.992       .  S
O3355      H3359   0.992       .  S
C3361      C3362   1.405       .  A
C3361      C3366   1.400       .  A
C3361      H3371   1.083       .  S
C3362      C3367   1.486       .  S
C3362      C3363   1.408   1_545  A
C3363      C3364   1.398       .  A
C3363      O3368   1.372       .  S
C3364      C3365   1.408   1_565  A
C3364      H3369   1.084       .  S
C3365      C3366   1.410       .  A
C3366      O3370   1.372       .  S
C3367      C3372   1.406       .  A
C3367      C3376   1.407   1_545  A
O3368      H3384   0.992       .  S
O3370      H3381   0.992       .  S
C3372      C3373   1.397       .  A
C3372      O3377   1.373       .  S
C3373      C3374   1.409       .  A
C3373      H3378   1.083       .  S
C3374      C3375   1.411   1_545  A
C3375      C3376   1.404       .  A
C3375      O3379   1.371       .  S
C3376      H3380   1.083       .  S
O3377      H3382   0.992       .  S
O3379      H3383   0.992       .  S
C3385      C3386   1.398   1_565  A
C3385      C3390   1.392       .  A
C3385      H3395   1.083       .  S
C3386      C3391   1.472       .  S
C3386      C3387   1.407       .  A
C3387      C3388   1.397       .  A
C3387      O3392   1.372       .  S
C3388      C3389   1.407       .  A
C3388      H3393   1.083       .  S
C3389      C3390   1.414   1_545  A
C3390      O3394   1.372       .  S
C3391      C3396   1.405   1_545  A
C3391      C3400   1.399       .  A
O3392      H3408   0.991       .  S
O3394      H3405   0.992       .  S
C3396      C3397   1.394       .  A
C3396      O3401   1.373       .  S
C3397      C3398   1.408   1_565  A
C3397      H3402   1.083       .  S
C3398      C3399   1.414       .  A
C3399      C3400   1.396       .  A
C3399      O3403   1.371       .  S
C3400      H3404   1.084       .  S
O3401      H3406   0.992       .  S
O3403      H3407   0.992       .  S
C3409      C3410   1.400       .  A
C3409      C3414   1.397       .  A
C3409      H3419   1.084   1_545  S
C3410      C3415   1.462       .  S
C3410      C3411   1.400       .  A
C3411      C3412   1.390       .  A
C3411      O3416   1.373       .  S
C3412      C3413   1.410       .  A
C3412      H3417   1.083   1_556  S
C3413      C3414   1.412       .  A
C3414      O3418   1.371   1_545  S
C3415      C3420   1.401       .  A
C3415      C3424   1.399       .  A
O3416      H3432   0.992       .  S
O3418      H3429   0.992       .  S
C3420      C3421   1.389       .  A
C3420      O3425   1.372       .  S
C3421      C3422   1.409       .  A
C3421      H3426   1.083       .  S
C3422      C3423   1.413       .  A
C3423      C3424   1.395       .  A
C3423      O3427   1.371   1_545  S
C3424      H3428   1.084   1_545  S
O3425      H3430   0.992       .  S
O3427      H3431   0.992       .  S
C3433      C3434   1.400       .  A
C3433      C3438   1.401       .  A
C3433      H3443   1.084       .  S
C3434      C3439   1.479       .  S
C3434      C3435   1.405   1_545  A
C3435      C3436   1.402       .  A
C3435      O3440   1.372       .  S
C3436      C3437   1.409   1_565  A
C3436      H3441   1.083       .  S
C3437      C3438   1.416       .  A
C3438      O3442   1.371       .  S
C3439      C3444   1.404       .  A
C3439      C3448   1.401   1_545  A
O3440      H3456   0.992       .  S
O3442      H3453   0.992       .  S
C3444      C3445   1.400       .  A
C3444      O3449   1.372       .  S
C3445      C3446   1.410       .  A
C3445      H3450   1.083       .  S
C3446      C3447   1.417   1_545  A
C3447      C3448   1.403       .  A
C3447      O3451   1.371       .  S
C3448      H3452   1.084       .  S
O3449      H3454   0.992       .  S
O3451      H3455   0.992       .  S
C3457      C3458   1.401       .  A
C3457      C3462   1.398       .  A
C3457      H3467   1.084       .  S
C3458      C3463   1.468       .  S
C3458      C3459   1.404       .  A
C3459      C3460   1.390       .  A
C3459      O3464   1.372       .  S
C3460      C3461   1.405       .  A
C3460      H3465   1.084       .  S
C3461      C3462   1.414       .  A
C3462      O3466   1.372       .  S
C3463      C3468   1.404       .  A
C3463      C3472   1.399       .  A
O3464      H3480   0.992       .  S
O3466      H3477   0.992       .  S
C3468      C3469   1.398       .  A
C3468      O3473   1.372       .  S
C3469      C3470   1.407       .  A
C3469      H3474   1.083       .  S
C3470      C3471   1.412       .  A
C3471      C3472   1.391       .  A
C3471      O3475   1.372       .  S
C3472      H3476   1.084       .  S
O3473      H3478   0.992       .  S
O3475      H3479   0.992       .  S
C3481      C3482   1.401       .  A
C3481      C3486   1.400       .  A
C3481      H3491   1.084       .  S
C3482      C3487   1.482       .  S
C3482      C3483   1.407       .  A
C3483      C3484   1.402       .  A
C3483      O3488   1.372       .  S
C3484      C3485   1.409       .  A
C3484      H3489   1.083       .  S
C3485      C3486   1.416       .  A
C3486      O3490   1.372       .  S
C3487      C3492   1.405       .  A
C3487      C3496   1.401       .  A
O3488      H3504   0.992       .  S
O3490      H3501   0.992       .  S
C3492      C3493   1.400       .  A
C3492      O3497   1.372       .  S
C3493      C3494   1.409       .  A
C3493      H3498   1.083       .  S
C3494      C3495   1.417       .  A
C3495      C3496   1.401       .  A
C3495      O3499   1.372       .  S
C3496      H3500   1.084       .  S
O3497      H3502   0.992       .  S
O3499      H3503   0.992       .  S
C3505      C3506   1.403       .  A
C3505      C3510   1.404       .  A
C3505      H3515   1.083       .  S
C3506      C3511   1.490       .  S
C3506      C3507   1.408       .  A
C3507      C3508   1.402       .  A
C3507      O3512   1.372       .  S
C3508      C3509   1.409       .  A
C3508      H3513   1.083       .  S
C3509      C3510   1.418       .  A
C3510      O3514   1.371       .  S
C3511      C3516   1.408       .  A
C3511      C3520   1.405       .  A
O3512      H3528   0.992       .  S
O3514      H3525   0.992       .  S
C3516      C3517   1.402       .  A
C3516      O3521   1.372       .  S
C3517      C3518   1.409       .  A
C3517      H3522   1.083       .  S
C3518      C3519   1.414       .  A
C3519      C3520   1.404       .  A
C3519      O3523   1.371       .  S
C3520      H3524   1.084       .  S
O3521      H3526   0.992       .  S
O3523      H3527   0.992       .  S
C3529      C3530   1.402       .  A
C3529      C3534   1.400       .  A
C3529      H3539   1.084       .  S
C3530      C3535   1.492       .  S
C3530      C3531   1.413       .  A
C3531      C3532   1.410       .  A
C3531      O3536   1.373       .  S
C3532      C3533   1.405       .  A
C3532      H3537   1.083       .  S
C3533      C3534   1.413       .  A
C3534      O3538   1.372       .  S
C3535      C3540   1.407       .  A
C3535      C3544   1.409       .  A
O3536      H3552   0.992       .  S
O3538      H3549   0.992       .  S
C3540      C3541   1.396       .  A
C3540      O3545   1.373       .  S
C3541      C3542   1.409       .  A
C3541      H3546   1.084       .  S
C3542      C3543   1.411       .  A
C3543      C3544   1.410       .  A
C3543      O3547   1.372       .  S
C3544      H3548   1.083       .  S
O3545      H3550   0.992       .  S
O3547      H3551   0.992       .  S
C3553      C3554   1.407       .  A
C3553      C3558   1.408   1_554  A
C3553      H3563   1.083       .  S
C3554      C3559   1.492       .  S
C3554      C3555   1.406   1_554  A
C3555      C3556   1.401       .  A
C3555      O3560   1.372       .  S
C3556      C3557   1.409       .  A
C3556      H3561   1.083       .  S
C3557      C3558   1.413       .  A
C3558      O3562   1.371       .  S
C3559      C3564   1.406       .  A
C3559      C3568   1.406       .  A
O3560      H3576   0.992       .  S
O3562      H3573   0.992       .  S
C3564      C3565   1.403       .  A
C3564      O3569   1.372       .  S
C3565      C3566   1.410       .  A
C3565      H3570   1.083       .  S
C3566      C3567   1.413       .  A
C3567      C3568   1.406       .  A
C3567      O3571   1.371       .  S
C3568      H3572   1.083       .  S
O3569      H3574   0.992       .  S
O3571      H3575   0.992       .  S
C3577      C3578   1.400       .  A
C3577      C3582   1.391       .  A
C3577      H3587   1.084       .  S
C3578      C3583   1.463       .  S
C3578      C3579   1.403       .  A
C3579      C3580   1.396       .  A
C3579      O3584   1.372       .  S
C3580      C3581   1.404       .  A
C3580      H3585   1.083       .  S
C3581      C3582   1.411       .  A
C3582      O3586   1.372       .  S
C3583      C3588   1.407       .  A
C3583      C3592   1.394       .  A
O3584      H3600   0.992       .  S
O3586      H3597   0.992       .  S
C3588      C3589   1.399       .  A
C3588      O3593   1.372       .  S
C3589      C3590   1.403       .  A
C3589      H3594   1.084       .  S
C3590      C3591   1.414       .  A
C3591      C3592   1.386       .  A
C3591      O3595   1.371       .  S
C3592      H3596   1.084       .  S
O3593      H3598   0.992       .  S
O3595      H3599   0.992       .  S
C3601      C3602   1.398       .  A
C3601      C3606   1.389       .  A
C3601      H3611   1.084       .  S
C3602      C3607   1.468       .  S
C3602      C3603   1.405       .  A
C3603      C3604   1.396       .  A
C3603      O3608   1.372       .  S
C3604      C3605   1.407       .  A
C3604      H3609   1.083       .  S
C3605      C3606   1.415       .  A
C3606      O3610   1.372       .  S
C3607      C3612   1.403       .  A
C3607      C3616   1.401       .  A
O3608      H3624   0.991       .  S
O3610      H3621   0.992       .  S
C3612      C3613   1.389       .  A
C3612      O3617   1.373       .  S
C3613      C3614   1.407       .  A
C3613      H3618   1.083       .  S
C3614      C3615   1.412       .  A
C3615      C3616   1.398       .  A
C3615      O3619   1.371       .  S
C3616      H3620   1.084       .  S
O3617      H3622   0.992       .  S
O3619      H3623   0.992       .  S
C3625      C3626   1.406       .  A
C3625      C3630   1.406       .  A
C3625      H3635   1.083       .  S
C3626      C3631   1.485       .  S
C3626      C3627   1.406   1_554  A
C3627      C3628   1.397       .  A
C3627      O3632   1.373       .  S
C3628      C3629   1.410   1_556  A
C3628      H3633   1.083       .  S
C3629      C3630   1.412       .  A
C3630      O3634   1.370       .  S
C3631      C3636   1.411       .  A
C3631      C3640   1.401       .  A
O3632      H3648   0.992       .  S
O3634      H3645   0.992       .  S
C3636      C3637   1.403       .  A
C3636      O3641   1.371       .  S
C3637      C3638   1.405       .  A
C3637      H3642   1.084       .  S
C3638      C3639   1.413       .  A
C3639      C3640   1.398       .  A
C3639      O3643   1.373   1_554  S
C3640      H3644   1.084       .  S
O3641      H3646   0.992       .  S
O3643      H3647   0.992       .  S
C3649      C3650   1.396       .  A
C3649      C3654   1.390       .  A
C3649      H3659   1.084       .  S
C3650      C3655   1.475       .  S
C3650      C3651   1.409       .  A
C3651      C3652   1.402       .  A
C3651      O3656   1.373       .  S
C3652      C3653   1.405       .  A
C3652      H3657   1.083       .  S
C3653      C3654   1.418       .  A
C3654      O3658   1.371       .  S
C3655      C3660   1.407       .  A
C3655      C3664   1.402       .  A
O3656      H3672   0.992       .  S
O3658      H3669   0.992       .  S
C3660      C3661   1.397       .  A
C3660      O3665   1.371       .  S
C3661      C3662   1.405       .  A
C3661      H3666   1.083       .  S
C3662      C3663   1.412       .  A
C3663      C3664   1.393       .  A
C3663      O3667   1.373       .  S
C3664      H3668   1.084       .  S
O3665      H3670   0.992       .  S
O3667      H3671   0.992       .  S
C3673      C3674   1.399       .  A
C3673      C3678   1.400       .  A
C3673      H3683   1.084       .  S
C3674      C3679   1.476       .  S
C3674      C3675   1.404       .  A
C3675      C3676   1.401       .  A
C3675      O3680   1.372       .  S
C3676      C3677   1.410       .  A
C3676      H3681   1.083       .  S
C3677      C3678   1.416       .  A
C3678      O3682   1.371       .  S
C3679      C3684   1.404       .  A
C3679      C3688   1.400       .  A
O3680      H3696   0.992       .  S
O3682      H3693   0.992       .  S
C3684      C3685   1.397       .  A
C3684      O3689   1.372       .  S
C3685      C3686   1.409       .  A
C3685      H3690   1.083       .  S
C3686      C3687   1.417       .  A
C3687      C3688   1.401       .  A
C3687      O3691   1.371       .  S
C3688      H3692   1.084       .  S
O3689      H3694   0.992       .  S
O3691      H3695   0.992       .  S
C3697      C3698   1.404       .  A
C3697      C3702   1.405       .  A
C3697      H3707   1.084       .  S
C3698      C3703   1.483       .  S
C3698      C3699   1.406       .  A
C3699      C3700   1.397       .  A
C3699      O3704   1.372       .  S
C3700      C3701   1.408       .  A
C3700      H3705   1.083       .  S
C3701      C3702   1.415       .  A
C3702      O3706   1.371       .  S
C3703      C3708   1.408       .  A
C3703      C3712   1.400       .  A
O3704      H3720   0.992       .  S
O3706      H3717   0.992       .  S
C3708      C3709   1.403       .  A
C3708      O3713   1.371       .  S
C3709      C3710   1.406       .  A
C3709      H3714   1.083       .  S
C3710      C3711   1.416       .  A
C3711      C3712   1.400       .  A
C3711      O3715   1.373       .  S
C3712      H3716   1.084       .  S
O3713      H3718   0.991       .  S
O3715      H3719   0.992       .  S
C3721      C3722   1.406       .  A
C3721      C3726   1.405       .  A
C3721      H3731   1.084       .  S
C3722      C3727   1.487       .  S
C3722      C3723   1.406       .  A
C3723      C3724   1.401       .  A
C3723      O3728   1.373       .  S
C3724      C3725   1.409       .  A
C3724      H3729   1.084       .  S
C3725      C3726   1.412       .  A
C3726      O3730   1.371       .  S
C3727      C3732   1.412       .  A
C3727      C3736   1.400       .  A
O3728      H3744   0.992       .  S
O3730      H3741   0.992       .  S
C3732      C3733   1.403       .  A
C3732      O3737   1.371   1_455  S
C3733      C3734   1.405       .  A
C3733      H3738   1.083   1_455  S
C3734      C3735   1.417       .  A
C3735      C3736   1.400       .  A
C3735      O3739   1.372       .  S
C3736      H3740   1.084       .  S
O3737      H3742   0.992       .  S
O3739      H3743   0.992       .  S
C3745      C3746   1.400       .  A
C3745      C3750   1.393   1_655  A
C3745      H3755   1.083       .  S
C3746      C3751   1.476       .  S
C3746      C3747   1.407   1_655  A
C3747      C3748   1.399       .  A
C3747      O3752   1.372   1_455  S
C3748      C3749   1.406       .  A
C3748      H3753   1.083       .  S
C3749      C3750   1.413       .  A
C3750      O3754   1.372       .  S
C3751      C3756   1.404       .  A
C3751      C3760   1.402       .  A
O3752      H3768   0.992   1_655  S
O3754      H3765   0.992       .  S
C3756      C3757   1.394       .  A
C3756      O3761   1.373       .  S
C3757      C3758   1.408       .  A
C3757      H3762   1.083       .  S
C3758      C3759   1.414       .  A
C3759      C3760   1.400       .  A
C3759      O3763   1.370       .  S
C3760      H3764   1.084       .  S
O3761      H3766   0.992       .  S
O3763      H3767   0.992       .  S
C3769      C3770   1.402       .  A
C3769      C3774   1.397       .  A
C3769      H3779   1.084       .  S
C3770      C3775   1.464       .  S
C3770      C3771   1.401       .  A
C3771      C3772   1.393       .  A
C3771      O3776   1.372       .  S
C3772      C3773   1.407       .  A
C3772      H3777   1.084       .  S
C3773      C3774   1.407       .  A
C3774      O3778   1.372       .  S
C3775      C3780   1.404       .  A
C3775      C3784   1.399       .  A
O3776      H3792   0.991       .  S
O3778      H3789   0.992       .  S
C3780      C3781   1.392       .  A
C3780      O3785   1.372       .  S
C3781      C3782   1.405       .  A
C3781      H3786   1.084       .  S
C3782      C3783   1.411       .  A
C3783      C3784   1.396       .  A
C3783      O3787   1.371       .  S
C3784      H3788   1.084       .  S
O3785      H3790   0.992       .  S
O3787      H3791   0.992       .  S
C3793      C3794   1.402       .  A
C3793      C3798   1.402       .  A
C3793      H3803   1.083       .  S
C3794      C3799   1.487       .  S
C3794      C3795   1.407       .  A
C3795      C3796   1.402       .  A
C3795      O3800   1.372       .  S
C3796      C3797   1.410       .  A
C3796      H3801   1.083       .  S
C3797      C3798   1.416       .  A
C3798      O3802   1.371       .  S
C3799      C3804   1.409       .  A
C3799      C3808   1.402       .  A
O3800      H3816   0.992       .  S
O3802      H3813   0.992       .  S
C3804      C3805   1.404       .  A
C3804      O3809   1.372       .  S
C3805      C3806   1.406       .  A
C3805      H3810   1.084       .  S
C3806      C3807   1.414       .  A
C3807      C3808   1.400       .  A
C3807      O3811   1.372       .  S
C3808      H3812   1.084       .  S
O3809      H3814   0.992       .  S
O3811      H3815   0.992       .  S
C3817      C3818   1.407       .  A
C3817      C3822   1.409       .  A
C3817      H3827   1.083       .  S
C3818      C3823   1.491       .  S
C3818      C3819   1.407       .  A
C3819      C3820   1.400       .  A
C3819      O3824   1.372       .  S
C3820      C3821   1.410       .  A
C3820      H3825   1.084       .  S
C3821      C3822   1.412       .  A
C3822      O3826   1.371       .  S
C3823      C3828   1.411       .  A
C3823      C3832   1.400       .  A
O3824      H3840   0.992       .  S
O3826      H3837   0.992       .  S
C3828      C3829   1.408       .  A
C3828      O3833   1.371       .  S
C3829      C3830   1.407       .  A
C3829      H3834   1.083       .  S
C3830      C3831   1.416       .  A
C3831      C3832   1.401       .  A
C3831      O3835   1.373       .  S
C3832      H3836   1.084       .  S
O3833      H3838   0.992       .  S
O3835      H3839   0.992       .  S
C3841      C3842   1.401       .  A
C3841      C3846   1.399       .  A
C3841      H3851   1.084       .  S
C3842      C3847   1.484       .  S
C3842      C3843   1.409       .  A
C3843      C3844   1.402   1_455  A
C3843      O3848   1.372       .  S
C3844      C3845   1.407   1_655  A
C3844      H3849   1.083       .  S
C3845      C3846   1.415       .  A
C3846      O3850   1.371       .  S
C3847      C3852   1.409       .  A
C3847      C3856   1.403       .  A
O3848      H3864   0.992       .  S
O3850      H3861   0.992       .  S
C3852      C3853   1.401       .  A
C3852      O3857   1.372       .  S
C3853      C3854   1.404       .  A
C3853      H3858   1.084       .  S
C3854      C3855   1.412       .  A
C3855      C3856   1.399       .  A
C3855      O3859   1.372       .  S
C3856      H3860   1.084       .  S
O3857      H3862   0.992       .  S
O3859      H3863   0.992       .  S
C3865      C3866   1.401       .  A
C3865      C3870   1.399   1_655  A
C3865      H3875   1.084       .  S
C3866      C3871   1.466       .  S
C3866      C3867   1.403       .  A
C3867      C3868   1.391       .  A
C3867      O3872   1.372       .  S
C3868      C3869   1.405   1_655  A
C3868      H3873   1.084       .  S
C3869      C3870   1.410       .  A
C3870      O3874   1.372       .  S
C3871      C3876   1.404       .  A
C3871      C3880   1.399       .  A
O3872      H3888   0.992       .  S
O3874      H3885   0.992       .  S
C3876      C3877   1.399       .  A
C3876      O3881   1.372       .  S
C3877      C3878   1.405       .  A
C3877      H3882   1.084       .  S
C3878      C3879   1.409       .  A
C3879      C3880   1.392       .  A
C3879      O3883   1.372       .  S
C3880      H3884   1.084       .  S
O3881      H3886   0.992       .  S
O3883      H3887   0.992       .  S
C3889      C3890   1.403       .  A
C3889      C3894   1.401       .  A
C3889      H3899   1.083       .  S
C3890      C3895   1.484       .  S
C3890      C3891   1.408       .  A
C3891      C3892   1.400       .  A
C3891      O3896   1.372       .  S
C3892      C3893   1.406       .  A
C3892      H3897   1.084       .  S
C3893      C3894   1.411       .  A
C3894      O3898   1.372       .  S
C3895      C3900   1.406       .  A
C3895      C3904   1.400       .  A
O3896      H3912   0.992       .  S
O3898      H3909   0.992       .  S
C3900      C3901   1.403       .  A
C3900      O3905   1.372       .  S
C3901      C3902   1.409       .  A
C3901      H3906   1.083       .  S
C3902      C3903   1.419       .  A
C3903      C3904   1.401       .  A
C3903      O3907   1.372       .  S
C3904      H3908   1.084       .  S
O3905      H3910   0.992       .  S
O3907      H3911   0.992       .  S
C3913      C3914   1.397       .  A
C3913      C3918   1.399       .  A
C3913      H3923   1.084       .  S
C3914      C3919   1.479       .  S
C3914      C3915   1.406       .  A
C3915      C3916   1.404       .  A
C3915      O3920   1.371       .  S
C3916      C3917   1.409       .  A
C3916      H3921   1.083       .  S
C3917      C3918   1.417       .  A
C3918      O3922   1.371       .  S
C3919      C3924   1.404       .  A
C3919      C3928   1.401       .  A
O3920      H3936   0.992       .  S
O3922      H3933   0.992       .  S
C3924      C3925   1.400       .  A
C3924      O3929   1.372       .  S
C3925      C3926   1.410       .  A
C3925      H3930   1.083       .  S
C3926      C3927   1.417       .  A
C3927      C3928   1.402       .  A
C3927      O3931   1.371       .  S
C3928      H3932   1.084       .  S
O3929      H3934   0.992       .  S
O3931      H3935   0.992       .  S
C3937      C3938   1.406       .  A
C3937      C3942   1.406       .  A
C3937      H3947   1.083       .  S
C3938      C3943   1.491       .  S
C3938      C3939   1.407       .  A
C3939      C3940   1.403       .  A
C3939      O3944   1.372       .  S
C3940      C3941   1.410       .  A
C3940      H3945   1.084       .  S
C3941      C3942   1.412       .  A
C3942      O3946   1.371       .  S
C3943      C3948   1.406       .  A
C3943      C3952   1.408       .  A
O3944      H3960   0.992       .  S
O3946      H3957   0.992       .  S
C3948      C3949   1.396       .  A
C3948      O3953   1.372       .  S
C3949      C3950   1.409       .  A
C3949      H3954   1.084       .  S
C3950      C3951   1.413       .  A
C3951      C3952   1.412       .  A
C3951      O3955   1.371       .  S
C3952      H3956   1.083       .  S
O3953      H3958   0.992       .  S
O3955      H3959   0.991       .  S
C3961      C3962   1.402       .  A
C3961      C3966   1.396       .  A
C3961      H3971   1.083       .  S
C3962      C3967   1.479       .  S
C3962      C3963   1.409       .  A
C3963      C3964   1.398       .  A
C3963      O3968   1.372       .  S
C3964      C3965   1.403       .  A
C3964      H3969   1.084       .  S
C3965      C3966   1.411       .  A
C3966      O3970   1.372       .  S
C3967      C3972   1.408       .  A
C3967      C3976   1.401       .  A
O3968      H3984   0.992       .  S
O3970      H3981   0.992       .  S
C3972      C3973   1.399       .  A
C3972      O3977   1.372       .  S
C3973      C3974   1.406       .  A
C3973      H3978   1.084       .  S
C3974      C3975   1.413       .  A
C3975      C3976   1.397       .  A
C3975      O3979   1.372       .  S
C3976      H3980   1.084       .  S
O3977      H3982   0.992       .  S
O3979      H3983   0.992       .  S
C3985      C3986   1.397       .  A
C3985      C3990   1.387       .  A
C3985      H3995   1.084       .  S
C3986      C3991   1.472       .  S
C3986      C3987   1.409       .  A
C3987      C3988   1.404       .  A
C3987      O3992   1.373       .  S
C3988      C3989   1.404       .  A
C3988      H3993   1.084       .  S
C3989      C3990   1.412       .  A
C3990      O3994   1.372       .  S
C3991      C3996   1.406       .  A
C3991      C4000   1.399       .  A
O3992      H4008   0.992       .  S
O3994      H4005   0.991       .  S
C3996      C3997   1.397       .  A
C3996      O4001   1.371       .  S
C3997      C3998   1.407       .  A
C3997      H4002   1.083       .  S
C3998      C3999   1.414       .  A
C3999      C4000   1.392       .  A
C3999      O4003   1.371       .  S
C4000      H4004   1.084       .  S
O4001      H4006   0.992       .  S
O4003      H4007   0.992       .  S
C4009      C4010   1.400       .  A
C4009      C4014   1.398       .  A
C4009      H4019   1.084       .  S
C4010      C4015   1.473       .  S
C4010      C4011   1.405       .  A
C4011      C4012   1.394       .  A
C4011      O4016   1.372       .  S
C4012      C4013   1.407       .  A
C4012      H4017   1.083       .  S
C4013      C4014   1.415       .  A
C4014      O4018   1.371       .  S
C4015      C4020   1.406       .  A
C4015      C4024   1.399       .  A
O4016      H4032   0.992       .  S
O4018      H4029   0.992       .  S
C4020      C4021   1.400       .  A
C4020      O4025   1.372       .  S
C4021      C4022   1.405       .  A
C4021      H4026   1.084       .  S
C4022      C4023   1.412       .  A
C4023      C4024   1.394       .  A
C4023      O4027   1.372       .  S
C4024      H4028   1.084       .  S
O4025      H4030   0.992       .  S
O4027      H4031   0.992       .  S
C4033      C4034   1.402       .  A
C4033      C4038   1.399       .  A
C4033      H4043   1.083       .  S
C4034      C4039   1.487       .  S
C4034      C4035   1.411       .  A
C4035      C4036   1.403       .  A
C4035      O4040   1.372       .  S
C4036      C4037   1.406       .  A
C4036      H4041   1.083       .  S
C4037      C4038   1.414       .  A
C4038      O4042   1.372       .  S
C4039      C4044   1.409       .  A
C4039      C4048   1.402       .  A
O4040      H4056   0.992       .  S
O4042      H4053   0.992       .  S
C4044      C4045   1.406       .  A
C4044      O4049   1.372       .  S
C4045      C4046   1.407       .  A
C4045      H4050   1.083       .  S
C4046      C4047   1.414       .  A
C4047      C4048   1.399       .  A
C4047      O4051   1.372       .  S
C4048      H4052   1.084       .  S
O4049      H4054   0.992       .  S
O4051      H4055   0.992       .  S
C4057      C4058   1.400       .  A
C4057      C4062   1.402       .  A
C4057      H4067   1.084       .  S
C4058      C4063   1.493       .  S
C4058      C4059   1.411       .  A
C4059      C4060   1.406       .  A
C4059      O4064   1.371       .  S
C4060      C4061   1.408       .  A
C4060      H4065   1.083       .  S
C4061      C4062   1.421       .  A
C4062      O4066   1.372       .  S
C4063      C4068   1.413   1_554  A
C4063      C4072   1.403   1_554  A
O4064      H4080   0.992       .  S
O4066      H4077   0.992       .  S
C4068      C4069   1.405       .  A
C4068      O4073   1.371   1_556  S
C4069      C4070   1.404       .  A
C4069      H4074   1.083       .  S
C4070      C4071   1.415       .  A
C4071      C4072   1.400       .  A
C4071      O4075   1.372       .  S
C4072      H4076   1.083       .  S
O4073      H4078   0.992       .  S
O4075      H4079   0.992       .  S
C4081      C4082   1.399       .  A
C4081      C4086   1.397       .  A
C4081      H4091   1.084       .  S
C4082      C4087   1.471       .  S
C4082      C4083   1.405       .  A
C4083      C4084   1.396       .  A
C4083      O4088   1.372       .  S
C4084      C4085   1.406       .  A
C4084      H4089   1.083       .  S
C4085      C4086   1.416       .  A
C4086      O4090   1.372   1_554  S
C4087      C4092   1.405       .  A
C4087      C4096   1.401       .  A
O4088      H4104   0.992       .  S
O4090      H4101   0.992       .  S
C4092      C4093   1.394       .  A
C4092      O4097   1.372       .  S
C4093      C4094   1.405       .  A
C4093      H4098   1.084       .  S
C4094      C4095   1.413       .  A
C4095      C4096   1.398       .  A
C4095      O4099   1.371       .  S
C4096      H4100   1.084       .  S
O4097      H4102   0.992       .  S
O4099      H4103   0.992       .  S
C4105      C4106   1.400       .  A
C4105      C4110   1.398       .  A
C4105      H4115   1.084       .  S
C4106      C4111   1.467       .  S
C4106      C4107   1.404       .  A
C4107      C4108   1.391       .  A
C4107      O4112   1.374       .  S
C4108      C4109   1.406       .  A
C4108      H4113   1.084       .  S
C4109      C4110   1.411       .  A
C4110      O4114   1.371       .  S
C4111      C4116   1.402       .  A
C4111      C4120   1.403       .  A
O4112      H4128   0.992       .  S
O4114      H4125   0.992       .  S
C4116      C4117   1.386       .  A
C4116      O4121   1.372       .  S
C4117      C4118   1.406       .  A
C4117      H4122   1.083       .  S
C4118      C4119   1.411       .  A
C4119      C4120   1.398       .  A
C4119      O4123   1.372       .  S
C4120      H4124   1.084       .  S
O4121      H4126   0.992       .  S
O4123      H4127   0.992       .  S
C4129      C4130   1.405       .  A
C4129      C4134   1.404       .  A
C4129      H4139   1.083       .  S
C4130      C4135   1.494       .  S
C4130      C4131   1.410       .  A
C4131      C4132   1.402       .  A
C4131      O4136   1.372       .  S
C4132      C4133   1.409       .  A
C4132      H4137   1.083       .  S
C4133      C4134   1.413       .  A
C4134      O4138   1.372       .  S
C4135      C4140   1.410       .  A
C4135      C4144   1.404       .  A
O4136      H4152   0.991       .  S
O4138      H4149   0.992       .  S
C4140      C4141   1.406       .  A
C4140      O4145   1.373       .  S
C4141      C4142   1.409       .  A
C4141      H4146   1.083       .  S
C4142      C4143   1.416       .  A
C4143      C4144   1.401       .  A
C4143      O4147   1.371       .  S
C4144      H4148   1.083       .  S
O4145      H4150   0.992       .  S
O4147      H4151   0.992       .  S
C4153      C4154   1.401       .  A
C4153      C4158   1.397       .  A
C4153      H4163   1.084       .  S
C4154      C4159   1.480       .  S
C4154      C4155   1.410       .  A
C4155      C4156   1.402       .  A
C4155      O4160   1.371       .  S
C4156      C4157   1.404       .  A
C4156      H4161   1.084       .  S
C4157      C4158   1.413       .  A
C4158      O4162   1.372       .  S
C4159      C4164   1.409       .  A
C4159      C4168   1.398       .  A
O4160      H4176   0.991       .  S
O4162      H4173   0.991       .  S
C4164      C4165   1.407       .  A
C4164      O4169   1.372       .  S
C4165      C4166   1.407       .  A
C4165      H4170   1.083       .  S
C4166      C4167   1.415       .  A
C4167      C4168   1.392       .  A
C4167      O4171   1.371       .  S
C4168      H4172   1.084       .  S
O4169      H4174   0.992       .  S
O4171      H4175   0.992       .  S
C4177      C4178   1.402       .  A
C4177      C4182   1.398       .  A
C4177      H4187   1.083       .  S
C4178      C4183   1.490       .  S
C4178      C4179   1.411       .  A
C4179      C4180   1.404       .  A
C4179      O4184   1.372       .  S
C4180      C4181   1.407       .  A
C4180      H4185   1.083       .  S
C4181      C4182   1.415       .  A
C4182      O4186   1.372       .  S
C4183      C4188   1.411       .  A
C4183      C4192   1.404       .  A
O4184      H4200   0.992       .  S
O4186      H4197   0.992       .  S
C4188      C4189   1.403       .  A
C4188      O4193   1.372       .  S
C4189      C4190   1.405       .  A
C4189      H4194   1.084       .  S
C4190      C4191   1.411       .  A
C4191      C4192   1.402       .  A
C4191      O4195   1.372       .  S
C4192      H4196   1.083       .  S
O4193      H4198   0.992       .  S
O4195      H4199   0.992       .  S
C4201      C4202   1.400       .  A
C4201      C4206   1.398       .  A
C4201      H4211   1.084       .  S
C4202      C4207   1.461       .  S
C4202      C4203   1.400       .  A
C4203      C4204   1.391       .  A
C4203      O4208   1.372       .  S
C4204      C4205   1.407       .  A
C4204      H4209   1.084       .  S
C4205      C4206   1.411       .  A
C4206      O4210   1.371       .  S
C4207      C4212   1.403       .  A
C4207      C4216   1.395       .  A
O4208      H4224   0.992       .  S
O4210      H4221   0.992       .  S
C4212      C4213   1.396       .  A
C4212      O4217   1.372       .  S
C4213      C4214   1.407       .  A
C4213      H4218   1.083       .  S
C4214      C4215   1.416       .  A
C4215      C4216   1.392       .  A
C4215      O4219   1.372       .  S
C4216      H4220   1.084       .  S
O4217      H4222   0.992       .  S
O4219      H4223   0.992       .  S
C4225      C4226   1.396       .  A
C4225      C4230   1.391       .  A
C4225      H4235   1.084       .  S
C4226      C4231   1.463       .  S
C4226      C4227   1.406       .  A
C4227      C4228   1.399       .  A
C4227      O4232   1.372       .  S
C4228      C4229   1.403       .  A
C4228      H4233   1.084       .  S
C4229      C4230   1.410       .  A
C4230      O4234   1.372       .  S
C4231      C4236   1.403       .  A
C4231      C4240   1.397       .  A
O4232      H4248   0.992       .  S
O4234      H4245   0.992       .  S
C4236      C4237   1.399       .  A
C4236      O4241   1.372       .  S
C4237      C4238   1.406       .  A
C4237      H4242   1.083       .  S
C4238      C4239   1.412       .  A
C4239      C4240   1.393       .  A
C4239      O4243   1.373       .  S
C4240      H4244   1.084       .  S
O4241      H4246   0.992       .  S
O4243      H4247   0.992       .  S
C4249      C4250   1.403       .  A
C4249      C4254   1.402       .  A
C4249      H4259   1.084       .  S
C4250      C4255   1.484       .  S
C4250      C4251   1.408       .  A
C4251      C4252   1.400       .  A
C4251      O4256   1.372       .  S
C4252      C4253   1.407       .  A
C4252      H4257   1.084       .  S
C4253      C4254   1.413       .  A
C4254      O4258   1.371       .  S
C4255      C4260   1.407       .  A
C4255      C4264   1.402       .  A
O4256      H4272   0.992       .  S
O4258      H4269   0.992       .  S
C4260      C4261   1.400       .  A
C4260      O4265   1.372       .  S
C4261      C4262   1.409       .  A
C4261      H4266   1.083       .  S
C4262      C4263   1.417       .  A
C4263      C4264   1.402       .  A
C4263      O4267   1.372       .  S
C4264      H4268   1.084       .  S
O4265      H4270   0.991       .  S
O4267      H4271   0.992       .  S
C4273      C4274   1.410       .  A
C4273      C4278   1.408       .  A
C4273      H4283   1.083       .  S
C4274      C4279   1.494       .  S
C4274      C4275   1.409       .  A
C4275      C4276   1.396       .  A
C4275      O4280   1.372       .  S
C4276      C4277   1.407       .  A
C4276      H4281   1.084       .  S
C4277      C4278   1.410       .  A
C4278      O4282   1.371       .  S
C4279      C4284   1.410       .  A
C4279      C4288   1.409       .  A
O4280      H4296   0.992       .  S
O4282      H4293   0.992       .  S
C4284      C4285   1.400       .  A
C4284      O4289   1.372       .  S
C4285      C4286   1.406       .  A
C4285      H4290   1.084       .  S
C4286      C4287   1.410       .  A
C4287      C4288   1.405       .  A
C4287      O4291   1.371       .  S
C4288      H4292   1.083       .  S
O4289      H4294   0.992       .  S
O4291      H4295   0.992       .  S
C4297      C4298   1.409       .  A
C4297      C4302   1.405       .  A
C4297      H4307   1.083       .  S
C4298      C4303   1.493       .  S
C4298      C4299   1.409       .  A
C4299      C4300   1.399       .  A
C4299      O4304   1.372       .  S
C4300      C4301   1.407       .  A
C4300      H4305   1.084       .  S
C4301      C4302   1.409       .  A
C4302      O4306   1.371       .  S
C4303      C4308   1.408       .  A
C4303      C4312   1.407       .  A
O4304      H4320   0.992       .  S
O4306      H4317   0.992       .  S
C4308      C4309   1.401       .  A
C4308      O4313   1.372       .  S
C4309      C4310   1.411       .  A
C4309      H4314   1.083       .  S
C4310      C4311   1.413       .  A
C4311      C4312   1.405       .  A
C4311      O4315   1.371       .  S
C4312      H4316   1.083       .  S
O4313      H4318   0.992       .  S
O4315      H4319   0.992       .  S
C4321      C4322   1.400       .  A
C4321      C4326   1.398       .  A
C4321      H4331   1.084       .  S
C4322      C4327   1.465       .  S
C4322      C4323   1.401       .  A
C4323      C4324   1.388       .  A
C4323      O4328   1.372       .  S
C4324      C4325   1.409       .  A
C4324      H4329   1.083       .  S
C4325      C4326   1.413       .  A
C4326      O4330   1.370       .  S
C4327      C4332   1.402       .  A
C4327      C4336   1.398       .  A
O4328      H4344   0.992       .  S
O4330      H4341   0.992       .  S
C4332      C4333   1.396       .  A
C4332      O4337   1.372       .  S
C4333      C4334   1.410       .  A
C4333      H4338   1.083       .  S
C4334      C4335   1.414       .  A
C4335      C4336   1.391       .  A
C4335      O4339   1.372       .  S
C4336      H4340   1.084       .  S
O4337      H4342   0.992       .  S
O4339      H4343   0.992       .  S
C4345      C4346   1.399       .  A
C4345      C4350   1.399       .  A
C4345      H4355   1.084       .  S
C4346      C4351   1.469       .  S
C4346      C4347   1.404       .  A
C4347      C4348   1.394       .  A
C4347      O4352   1.373       .  S
C4348      C4349   1.406       .  A
C4348      H4353   1.084       .  S
C4349      C4350   1.414       .  A
C4350      O4354   1.371       .  S
C4351      C4356   1.402       .  A
C4351      C4360   1.403       .  A
O4352      H4368   0.992       .  S
O4354      H4365   0.992       .  S
C4356      C4357   1.390       .  A
C4356      O4361   1.372       .  S
C4357      C4358   1.407       .  A
C4357      H4362   1.083       .  S
C4358      C4359   1.411       .  A
C4359      C4360   1.401       .  A
C4359      O4363   1.372       .  S
C4360      H4364   1.084       .  S
O4361      H4366   0.992       .  S
O4363      H4367   0.992       .  S
C4369      C4370   1.406       .  A
C4369      C4374   1.406       .  A
C4369      H4379   1.083       .  S
C4370      C4375   1.494       .  S
C4370      C4371   1.410       .  A
C4371      C4372   1.405       .  A
C4371      O4376   1.371       .  S
C4372      C4373   1.405       .  A
C4372      H4377   1.084       .  S
C4373      C4374   1.412       .  A
C4374      O4378   1.372       .  S
C4375      C4380   1.409       .  A
C4375      C4384   1.404       .  A
O4376      H4392   0.992       .  S
O4378      H4389   0.992       .  S
C4380      C4381   1.407       .  A
C4380      O4385   1.372       .  S
C4381      C4382   1.410       .  A
C4381      H4386   1.083       .  S
C4382      C4383   1.416       .  A
C4383      C4384   1.404       .  A
C4383      O4387   1.371       .  S
C4384      H4388   1.084       .  S
O4385      H4390   0.992       .  S
O4387      H4391   0.992       .  S
C4393      C4394   1.403       .  A
C4393      C4398   1.404       .  A
C4393      H4403   1.083       .  S
C4394      C4399   1.491       .  S
C4394      C4395   1.409       .  A
C4395      C4396   1.403       .  A
C4395      O4400   1.372       .  S
C4396      C4397   1.411       .  A
C4396      H4401   1.083       .  S
C4397      C4398   1.416       .  A
C4398      O4402   1.371       .  S
C4399      C4404   1.409       .  A
C4399      C4408   1.404       .  A
O4400      H4416   0.992       .  S
O4402      H4413   0.992       .  S
C4404      C4405   1.402       .  A
C4404      O4409   1.372       .  S
C4405      C4406   1.408       .  A
C4405      H4410   1.083       .  S
C4406      C4407   1.414       .  A
C4407      C4408   1.403       .  A
C4407      O4411   1.371       .  S
C4408      H4412   1.083       .  S
O4409      H4414   0.992       .  S
O4411      H4415   0.992       .  S
