geometry optimzed in LAMMPS
_audit_creation_date              2020-12-01 
_audit_creation_method            'lammps2cif' 
_symmetry_space_group_name_H-M    'P1' 
_symmetry_Int_Tables_number       1 
_symmetry_cell_setting            triclinic 
loop_ 
_symmetry_equiv_pos_as_xyz 
  x,y,z 
_cell_length_a                    41.51173954 
_cell_length_b                    32.07260513066072 
_cell_length_c                    42.25121226561784 
_cell_angle_alpha                 90.07424682935316 
_cell_angle_beta                  90.03771180285267 
_cell_angle_gamma                 89.88648944912036 
loop_ 
_atom_site_label 
_atom_site_type_symbol 
_atom_site_fract_x 
_atom_site_fract_y 
_atom_site_fract_z 
_atom_site_charge 
O1          O  0.39938699  0.73540003  0.01628418    -0.82300
C2          C  0.45815103  0.64306854  0.42053295     0.97100
O3          O  0.46615057  0.64201390  0.44949119    -0.71400
O4          O  0.48020023  0.71243096  0.47604896    -0.75000
Al5        Al  0.45067379  0.66992160  0.98668079     1.49000
C6          C  0.47707924  0.75060936  0.48181836     0.92300
O7          O  0.41504929  0.76266911  0.43135518    -0.81200
O8          O  0.35562013  0.67443117  0.46532279    -0.74800
Al9        Al  0.40792128  0.74705962  0.47407077     1.90100
O10         O  0.38459625  0.71197697  0.41265256    -0.73800
O11         O  0.39804328  0.61150150  0.45870138    -0.73700
O12         O  0.42999133  0.65449872  0.41254599    -0.79300
O13         O  0.42697780  0.62305824  0.00067431    -0.77600
O14         O  0.41789073  0.69384473  0.46666562    -1.13700
O15         O  0.44047760  0.69440465  0.02740843    -0.72900
C16         C  0.41657741  0.71635303  0.03596257     0.97800
C17         C  0.39830386  0.74695012  0.40939814     0.94200
Al18       Al  0.39381877  0.66525488  0.43947814     1.55600
O19         O  0.44964012  0.76649896  0.48441004    -0.77500
C20         C  0.40994480  0.59890107  0.48436970     0.98400
C21         C  0.34608563  0.71065372  0.47326459     0.93300
O22         O  0.36319205  0.74180087  0.46694527    -0.82800
O23         O  0.39383466  0.28009369  0.48289162    -0.82300
C24         C  0.45454872  0.36647397  0.08051467     0.97100
O25         O  0.46233246  0.37032509  0.05143343    -0.71400
O26         O  0.47087700  0.30161065  0.02000729    -0.75000
Al27       Al  0.44389037  0.34735888  0.01271133     1.49000
C28         C  0.46660790  0.26293137  0.02146244     0.92300
O29         O  0.39869251  0.25948060  0.07136855    -0.81200
O30         O  0.35100147  0.35659103  0.03441062    -0.74800
Al31       Al  0.39728999  0.27339089  0.02697236     1.90100
O32         O  0.37187056  0.31463638  0.08558780    -0.73800
O33         O  0.39907149  0.41165296  0.04463862    -0.73700
O34         O  0.42544735  0.35926658  0.08811533    -0.79300
O35         O  0.42289131  0.39781549  0.50040915    -0.77600
O36         O  0.41032608  0.32599638  0.03306991    -1.13700
O37         O  0.43107474  0.32672177  0.47191942    -0.72900
C38         C  0.40957227  0.30128425  0.46321736     0.97800
C39         C  0.38213162  0.27880143  0.09171201     0.94200
Al40       Al  0.38883550  0.35784758  0.06063747     1.55600
O41         O  0.43873575  0.24804207  0.02316159    -0.77500
C42         C  0.40925609  0.42354341  0.01829884     0.98400
C43         C  0.33824241  0.32235196  0.02576395     0.93300
O44         O  0.35300973  0.28791816  0.02825554    -0.82800
O45         O  0.14475498  0.22849633  0.03043180    -0.82300
C46         C  0.20331512  0.14908303  0.42800288     0.97100
O47         O  0.21188758  0.14595395  0.45661804    -0.71400
O48         O  0.22415684  0.21573269  0.48516684    -0.75000
Al49       Al  0.19705511  0.16999613  0.99520968     1.49000
C50         C  0.21949509  0.25349023  0.49175932     0.92300
O51         O  0.15436412  0.26451252  0.44593162    -0.81200
O52         O  0.10054701  0.16888693  0.47720633    -0.74800
Al53       Al  0.15025521  0.24467817  0.48837873     1.90100
O54         O  0.12598342  0.21266048  0.42620089    -0.73800
O55         O  0.14565320  0.11082775  0.46657866    -0.73700
O56         O  0.17449870  0.15928880  0.42121212    -0.79300
O57         O  0.17584637  0.12029245  0.00795075    -0.77600
O58         O  0.16227932  0.19308350  0.47782064    -1.13700
O59         O  0.18815686  0.18998655  0.03715002    -0.72900
C60         C  0.16356724  0.20833668  0.04805825     0.97800
C61         C  0.13879420  0.24815931  0.42338055     0.94200
Al62       Al  0.13851032  0.16505882  0.45005184     1.55600
O63         O  0.19162887  0.26672042  0.49714911    -0.77500
C64         C  0.15868606  0.09673730  0.49116566     0.98400
C65         C  0.08948869  0.20340181  0.48735655     0.93300
O66         O  0.10546156  0.23627765  0.48349257    -0.82800
O67         O  0.14757131  0.77696889  0.48712614    -0.82300
C68         C  0.20832829  0.86914265  0.07972596     0.97100
O69         O  0.21455787  0.87371584  0.05019515    -0.71400
O70         O  0.22568448  0.80747866  0.01621308    -0.75000
Al71       Al  0.19477283  0.84938311  0.01203893     1.49000
C72         C  0.22425857  0.76845579  0.01689584     0.92300
O73         O  0.16339430  0.75646044  0.07212767    -0.81200
O74         O  0.10460970  0.84684473  0.04000716    -0.74800
Al75       Al  0.15572324  0.77008852  0.02928949     1.90100
O76         O  0.13141813  0.80503165  0.09018795    -0.73800
O77         O  0.14896688  0.90691443  0.04905382    -0.73700
O78         O  0.18079886  0.85702372  0.08889965    -0.79300
O79         O  0.16920929  0.89689141  0.50253535    -0.77600
O80         O  0.16504153  0.82366255  0.03489376    -1.13700
O81         O  0.17967442  0.82729624  0.47149300    -0.72900
C82         C  0.15967563  0.79841819  0.46542157     0.97800
C83         C  0.14561881  0.77061755  0.09357835     0.94200
Al84       Al  0.14320544  0.85172658  0.06447286     1.55600
O85         O  0.19791988  0.75026083  0.02086365    -0.77500
C86         C  0.15715298  0.92094013  0.02264527     0.98400
C87         C  0.09416648  0.81161191  0.03086434     0.93300
O88         O  0.11049829  0.77855361  0.03485319    -0.82800
O89         O  0.11740058  0.26817646  0.27485623    -0.82300
C90         C  0.05258637  0.35446749  0.18054880     0.97100
O91         O  0.04653837  0.35819003  0.21018882    -0.71400
O92         O  0.03859280  0.29237258  0.24664547    -0.75000
Al93       Al  0.06793629  0.33682412  0.24852992     1.49000
C94         C  0.04201634  0.25356807  0.24566131     0.92300
O95         O  0.10559756  0.24338847  0.18940613    -0.81200
O96         O  0.15816845  0.34014196  0.21917686    -0.74800
Al97       Al  0.11063513  0.25977880  0.23231848     1.90100
O98         O  0.13292316  0.29569816  0.17077550    -0.73800
O99         O  0.11179184  0.39660368  0.21051083    -0.73700
O100        O  0.08059408  0.34414115  0.17110789    -0.79300
O101        O  0.09146224  0.38598722  0.25670404    -0.77600
O102        O  0.09864558  0.31244876  0.22568210    -1.13700
O103        O  0.08489600  0.31838585  0.28917289    -0.72900
C104        C  0.10593044  0.29105939  0.29601567     0.97800
C105        C  0.12337955  0.25871350  0.16845367     0.94200
Al106      Al  0.11891725  0.34154261  0.19553135     1.55600
O107        O  0.06889530  0.23731316  0.23977711    -0.77500
C108        C  0.10500485  0.40980505  0.23754773     0.98400
C109        C  0.17075155  0.30654934  0.22916760     0.93300
O110        O  0.15565071  0.27216201  0.22803614    -0.82800
O111        O  0.12462005  0.72777884  0.23523059    -0.82300
C112        C  0.05899366  0.63553503  0.32549831     0.97100
O113        O  0.05449229  0.63087424  0.29585127    -0.71400
O114        O  0.04488254  0.69846835  0.26419622    -0.75000
Al115      Al  0.07526172  0.65649739  0.25953318     1.49000
C116        C  0.04675773  0.73737848  0.26336893     0.92300
O117        O  0.10830048  0.74904724  0.32166644    -0.81200
O118        O  0.16503651  0.65599981  0.28995780    -0.74800
Al119      Al  0.11561118  0.73476724  0.27807496     1.90100
O120        O  0.13682157  0.69670146  0.33897523    -0.73800
O121        O  0.11955714  0.59694184  0.29595413    -0.73700
O122        O  0.08635339  0.64642981  0.33618763    -0.79300
O123        O  0.10069585  0.60947403  0.24933203    -0.77600
O124        O  0.10494611  0.68118387  0.28316895    -1.13700
O125        O  0.09072491  0.67895394  0.22044124    -0.72900
C126        C  0.11196906  0.70580111  0.21396362     0.97800
C127        C  0.12414468  0.73179603  0.34352569     0.94200
Al128      Al  0.12522908  0.65151377  0.31268193     1.55600
O129        O  0.07309081  0.75559081  0.26863084    -0.77500
C130        C  0.11277909  0.58449773  0.26867528     0.98400
C131        C  0.17721294  0.69112144  0.28298696     0.93300
O132        O  0.16080353  0.72454762  0.28452760    -0.82800
O133        O  0.36720126  0.23079022  0.23474939    -0.82300
C134        C  0.30136929  0.14385538  0.32878636     0.97100
O135        O  0.29494507  0.14046086  0.29948637    -0.71400
O136        O  0.28616707  0.21227644  0.27306450    -0.75000
Al137      Al  0.31351369  0.16756733  0.26279968     1.49000
C138        C  0.29124117  0.25068013  0.27066462     0.92300
O139        O  0.35623076  0.25519798  0.32102143    -0.81200
O140        O  0.40675350  0.15797694  0.28847253    -0.74800
Al141      Al  0.36076396  0.23982144  0.27765512     1.90100
O142        O  0.38183239  0.20054156  0.33906347    -0.73800
O143        O  0.35883998  0.10319307  0.29342674    -0.73700
O144        O  0.32970169  0.15303100  0.33766756    -0.79300
O145        O  0.33569386  0.11940423  0.24893976    -0.77600
O146        O  0.34704603  0.18793798  0.28402045    -1.13700
O147        O  0.32545600  0.19179361  0.22257252    -0.72900
C148        C  0.34886965  0.21465206  0.21452733     0.97800
C149        C  0.37266594  0.23779297  0.34236615     0.94200
Al150      Al  0.36746083  0.15617843  0.31228366     1.55600
O151        O  0.31949527  0.26476007  0.26990856    -0.77500
C152        C  0.34910553  0.09289956  0.26635257     0.98400
C153        C  0.42033999  0.19197611  0.28116658     0.93300
O154        O  0.40533676  0.22630765  0.28239003    -0.82800
O155        O  0.35975086  0.76805800  0.26684846    -0.82300
C156        C  0.30645666  0.86366558  0.17760590     0.97100
O157        O  0.29608475  0.84855407  0.20375258    -0.71400
O158        O  0.29729552  0.79262408  0.25189955    -0.75000
Al159      Al  0.32037467  0.84112158  0.24164913     1.49000
C160        C  0.29497521  0.75765279  0.23920875     0.92300
O161        O  0.36184948  0.75468113  0.17718879    -0.81200
O162        O  0.41602069  0.83666576  0.21321258    -0.74800
Al163      Al  0.35968783  0.76496102  0.22149425     1.90100
O164        O  0.38145229  0.81431796  0.16156325    -0.73800
O165        O  0.37818378  0.89960416  0.22219605    -0.73700
O166        O  0.33648128  0.87139192  0.17317010    -0.79300
O167        O  0.33004412  0.89829668  0.24061861    -0.77600
O168        O  0.35222905  0.81948265  0.21888013    -1.13700
O169        O  0.34551570  0.83319827  0.27937647    -0.72900
C170        C  0.35881245  0.79834334  0.28644818     0.97800
C171        C  0.37555830  0.77656254  0.15652540     0.94200
Al172      Al  0.37571536  0.85275304  0.19457715     1.55600
O173        O  0.31545456  0.74700898  0.21894325    -0.77500
C174        C  0.35512552  0.91795230  0.23492417     0.98400
C175        C  0.42463536  0.80070808  0.22201773     0.93300
O176        O  0.40470191  0.77126848  0.22397517    -0.82800
C177        C  0.35217274  0.04900964  0.25577284    -0.00600
C178        C  0.37860877  0.02499707  0.26605979    -0.12500
C179        C  0.38094355  0.98242775  0.25854357     0.01600
C180        C  0.35596266  0.96309256  0.24142745    -0.00700
C181        C  0.32990127  0.98712957  0.23075415    -0.12500
C182        C  0.32801828  0.02976379  0.23726256     0.01500
H183        H  0.39737735  0.03947047  0.28013070     0.14500
H184        H  0.31079435  0.97238404  0.21725735     0.14500
C185        C  0.30028468  0.05238390  0.22569018     0.36100
C186        C  0.40838798  0.95894742  0.26968596     0.36000
N187        N  0.27815354  0.07053632  0.21626585    -0.44200
N188        N  0.43042930  0.94010878  0.27851715    -0.44200
C189        C  0.26880355  0.72998004  0.25034627    -0.00600
C190        C  0.26154333  0.73127982  0.28285872    -0.12500
C191        C  0.23303675  0.71425363  0.29458884     0.01600
C192        C  0.21120138  0.69514819  0.27372536    -0.00700
C193        C  0.21966357  0.69024356  0.24170057    -0.12500
C194        C  0.24846610  0.70732901  0.22987665     0.01500
H195        H  0.27738296  0.74785365  0.29895906     0.14500
H196        H  0.20269249  0.67587688  0.22552782     0.14500
C197        C  0.25519906  0.70427456  0.19646524     0.36100
C198        C  0.22552361  0.71942150  0.32776963     0.36000
N199        N  0.26073193  0.70166090  0.16969499    -0.44200
N200        N  0.21945858  0.72351947  0.35432717    -0.44200
C201        C  0.01801379  0.75972241  0.25159899    -0.00600
C202        C  0.50254618  0.74138467  0.22560757    -0.12500
C203        C  0.47312990  0.75608480  0.21466403     0.01600
C204        C  0.45857037  0.79086302  0.22926128    -0.00700
C205        C  0.47481277  0.81119321  0.25417725    -0.12500
C206        C  0.00449945  0.79564289  0.26555508     0.01500
H207        H  0.51299078  0.71405510  0.21444620     0.14500
H208        H  0.46342192  0.83738291  0.26595594     0.14500
C209        C  0.01930817  0.81480066  0.29279501     0.36100
C210        C  0.45772552  0.73303702  0.18946166     0.36000
N211        N  0.03126374  0.82990382  0.31473156    -0.44200
N212        N  0.44581379  0.71362424  0.16956108    -0.44200
C213        C  0.26328671  0.27816223  0.26563409    -0.00600
C214        C  0.26114997  0.30020565  0.23694574    -0.12500
C215        C  0.23114835  0.31390035  0.22553575     0.01600
C216        C  0.20316515  0.30579078  0.24326814    -0.00700
C217        C  0.20606154  0.28860251  0.27362974    -0.12500
C218        C  0.23576907  0.27453683  0.28486971     0.01500
H219        H  0.28228351  0.30298278  0.22200882     0.14500
H220        H  0.18462720  0.28371396  0.28773232     0.14500
C221        C  0.23720374  0.25450507  0.31543875     0.36100
C222        C  0.22920575  0.33213752  0.19439061     0.36000
N223        N  0.23834676  0.23876709  0.34004189    -0.44200
N224        N  0.22756260  0.34678358  0.16942362    -0.44200
C225        C  0.01447182  0.22752668  0.25487350    -0.00600
C226        C  0.49397747  0.21105264  0.23170080    -0.12500
C227        C  0.46396794  0.19435602  0.24023227     0.01600
C228        C  0.45449623  0.19380465  0.27231785    -0.00700
C229        C  0.47608832  0.20738059  0.29552932    -0.12500
C230        C  0.00583380  0.22434443  0.28709861     0.01500
H231        H  0.50046993  0.21368231  0.20692045     0.14500
H232        H  0.46858767  0.20791997  0.32013306     0.14500
C233        C  0.02594406  0.24115868  0.31190255     0.36100
C234        C  0.44239338  0.18074109  0.21557196     0.36000
N235        N  0.04162756  0.25458119  0.33212028    -0.44200
N236        N  0.42533187  0.16964998  0.19563689    -0.44200
C237        C  0.11172561  0.45383328  0.24618981    -0.00600
C238        C  0.11580803  0.48329025  0.22189084    -0.12500
C239        C  0.11824381  0.52591778  0.22866689     0.01600
C240        C  0.11648731  0.53984959  0.26034447    -0.00700
C241        C  0.11515493  0.51017690  0.28473050    -0.12500
C242        C  0.11286199  0.46756669  0.27800573     0.01500
H243        H  0.11599478  0.47322536  0.19737473     0.14500
H244        H  0.11451245  0.52033647  0.30922446     0.14500
C245        C  0.11171344  0.43888563  0.30431537     0.36100
C246        C  0.12251252  0.55462538  0.20268944     0.36000
N247        N  0.11090074  0.41597483  0.32543574    -0.44200
N248        N  0.12603766  0.57782457  0.18202466    -0.44200
C249        C  0.23390516  0.87566423  0.10422129    -0.00600
C250        C  0.26651066  0.87096433  0.09585582    -0.12500
C251        C  0.29083065  0.86898425  0.11906846     0.01600
C252        C  0.28274017  0.87155881  0.15162831    -0.00700
C253        C  0.25043689  0.87887290  0.15976491    -0.12500
C254        C  0.22626446  0.88133157  0.13667194     0.01500
H255        H  0.27294019  0.86663051  0.07119453     0.14500
H256        H  0.24382890  0.88191287  0.18449591     0.14500
C257        C  0.19371777  0.88898018  0.14732768     0.36100
C258        C  0.32350654  0.86179278  0.10867031     0.36000
N259        N  0.16764437  0.89501193  0.15589412    -0.44200
N260        N  0.34968048  0.85618948  0.10022891    -0.44200
C261        C  0.15083890  0.78496726  0.43302958    -0.00600
C262        C  0.14410129  0.74233261  0.42972602    -0.12500
C263        C  0.13306444  0.72567522  0.40159929     0.01600
C264        C  0.12954672  0.75140929  0.37474493    -0.00700
C265        C  0.13568221  0.79448701  0.37769344    -0.12500
C266        C  0.14620762  0.81149699  0.40679746     0.01500
H267        H  0.14731128  0.72131673  0.44960816     0.14500
H268        H  0.13314005  0.81452040  0.35719097     0.14500
C269        C  0.15127007  0.85582929  0.40939984     0.36100
C270        C  0.12576149  0.68158536  0.40145157     0.36000
N271        N  0.15520949  0.89143002  0.41157578    -0.44200
N272        N  0.12039088  0.64620647  0.40188607    -0.46600
C273        C  0.13983528  0.74652745  0.12220294    -0.00600
C274        C  0.10952529  0.72821959  0.12616835    -0.12500
C275        C  0.10055594  0.71132690  0.15531843     0.01600
C276        C  0.12215965  0.71357189  0.18109483    -0.00700
C277        C  0.15340179  0.72933694  0.17618108    -0.12500
C278        C  0.16236508  0.74579472  0.14696042     0.01500
H279        H  0.09233315  0.72881660  0.10680194     0.14500
H280        H  0.17035670  0.73079211  0.19569615     0.14500
C281        C  0.19384461  0.76438960  0.14360148     0.36100
C282        C  0.06836120  0.69494428  0.15850350     0.36000
N283        N  0.21907781  0.77925032  0.14097333    -0.44200
N284        N  0.04254324  0.68172918  0.16071495    -0.44200
C285        C  0.15436189  0.96607357  0.01591655    -0.00600
C286        C  0.14454891  0.97907796  0.48578933    -0.12500
C287        C  0.14413511  0.02143628  0.47766918     0.01600
C288        C  0.15488044  0.05188626  0.49970928    -0.00700
C289        C  0.16403666  0.03866163  0.03014443    -0.12500
C290        C  0.16351710  0.99638879  0.03847852     0.01500
H291        H  0.13727343  0.95595539  0.46844985     0.14500
H292        H  0.17209914  0.06135156  0.04745909     0.14500
C293        C  0.17411900  0.98484058  0.06985773     0.36100
C294        C  0.13319064  0.03217011  0.44625868     0.36000
N295        N  0.18250302  0.97548253  0.09499876    -0.44200
N296        N  0.12417843  0.04074204  0.42116365    -0.44200
C297        C  0.13509048  0.23403032  0.14160708    -0.00600
C298        C  0.16760337  0.23880657  0.13315005    -0.12500
C299        C  0.17865449  0.22577939  0.10360175     0.01600
C300        C  0.15670175  0.20840879  0.08201959    -0.00700
C301        C  0.12521406  0.19894458  0.09191302    -0.12500
C302        C  0.11430502  0.21127180  0.12182391     0.01500
H303        H  0.18390296  0.25524207  0.14889631     0.14500
H304        H  0.10850639  0.18470320  0.07538950     0.14500
C305        C  0.08117876  0.20365448  0.13042920     0.36100
C306        C  0.21161318  0.23441181  0.09490078     0.36000
N307        N  0.05470502  0.19735939  0.13751281    -0.44200
N308        N  0.23807081  0.24116602  0.08802415    -0.44200
C309        C  0.11772723  0.28411488  0.32897714    -0.00600
C310        C  0.10758822  0.31032615  0.35388757    -0.12500
C311        C  0.11652246  0.30184869  0.38540901     0.01600
C312        C  0.13649274  0.26742032  0.39204237    -0.00700
C313        C  0.14837371  0.24324685  0.36725461    -0.12500
C314        C  0.13878979  0.25025182  0.33625986     0.01500
H315        H  0.09156409  0.33623439  0.34898806     0.14500
H316        H  0.16334953  0.21631641  0.37253916     0.14500
C317        C  0.14939048  0.21950526  0.31341940     0.36100
C318        C  0.10336556  0.32697159  0.41063528     0.36000
N319        N  0.15787726  0.19461868  0.29538535    -0.44200
N320        N  0.09285325  0.34706878  0.43093052    -0.44200
C321        C  0.22820850  0.14222245  0.40262777    -0.00600
C322        C  0.21892964  0.14058532  0.37059458    -0.12500
C323        C  0.24195400  0.13858205  0.34607825     0.01600
C324        C  0.27540496  0.13880687  0.35324622    -0.00700
C325        C  0.28449339  0.13836602  0.38523593    -0.12500
C326        C  0.26171954  0.13997356  0.40964538     0.01500
H327        H  0.19355863  0.14185422  0.36453652     0.14500
H328        H  0.30985493  0.13811548  0.39144391     0.14500
C329        C  0.27426266  0.14157051  0.44154777     0.36100
C330        C  0.23030813  0.13810998  0.31387954     0.36000
N331        N  0.28461026  0.14308915  0.46696839    -0.44200
N332        N  0.22098862  0.13768623  0.28805814    -0.44200
C333        C  0.05764635  0.20795203  0.50312781    -0.00600
C334        C  0.03017093  0.18853549  0.49039024    -0.12500
C335        C  0.49903695  0.20258321  0.99866845     0.01600
C336        C  0.49549385  0.23602482  0.02023904    -0.00700
C337        C  0.02254896  0.25082881  0.53611762    -0.12500
C338        C  0.05330676  0.23799954  0.52758141     0.01500
H339        H  0.03296771  0.16531685  0.47191385     0.14500
H340        H  0.01977707  0.27578676  0.55332791     0.14500
C341        C  0.07930497  0.26012220  0.54279703     0.36100
C342        C  0.47151933  0.18522889  0.98250843     0.36000
N343        N  0.09851760  0.27986457  0.55580937    -0.44200
N344        N  0.44939248  0.17147229  0.96952993    -0.44200
C345        C  0.30557233  0.31981331  0.01267592    -0.00600
C346        C  0.30242603  0.29927326  0.48348163    -0.12500
C347        C  0.27351982  0.28036918  0.47475026     0.01600
C348        C  0.24716174  0.28171688  0.99561444    -0.00700
C349        C  0.24911167  0.30625947  0.02317736    -0.12500
C350        C  0.27830163  0.32489535  0.03206122     0.01500
H351        H  0.32349630  0.29451786  0.46884849     0.14500
H352        H  0.22875474  0.30762446  0.03923297     0.14500
C353        C  0.28082480  0.34415720  0.06286112     0.36100
C354        C  0.27186545  0.25850109  0.44488974     0.36000
N355        N  0.28301346  0.35933337  0.08763166    -0.44200
N356        N  0.27050858  0.24134009  0.42082140    -0.44200
C357        C  0.47996448  0.36844361  0.10607283    -0.00600
C358        C  0.47061908  0.36489954  0.13807472    -0.12500
C359        C  0.99339202  0.36131171  0.16272359     0.01600
C360        C  0.02682838  0.36175789  0.15596396    -0.00700
C361        C  0.03615367  0.36661425  0.12411070    -0.12500
C362        C  0.01348373  0.36966899  0.09944976     0.01500
H363        H  0.44523205  0.36345504  0.14396159     0.14500
H364        H  0.06156001  0.36706926  0.11814524     0.14500
C365        C  0.02583655  0.37218495  0.06755852     0.36100
C366        C  0.48144994  0.35478125  0.19440798     0.36000
N367        N  0.03594127  0.37395669  0.04206954    -0.44200
N368        N  0.47174191  0.34931830  0.21973540    -0.44200
C369        C  0.37349400  0.26087182  0.12289431    -0.00600
C370        C  0.37037311  0.21744488  0.12697675    -0.12500
C371        C  0.36043700  0.20082866  0.15627145     0.01600
C372        C  0.35378797  0.22799530  0.18167796    -0.00700
C373        C  0.35623338  0.27097931  0.17729862    -0.12500
C374        C  0.36622571  0.28761198  0.14871429     0.01500
H375        H  0.37553456  0.19664112  0.10739017     0.14500
H376        H  0.35127224  0.29189025  0.19695737     0.14500
C377        C  0.36992697  0.33243094  0.14758832     0.36100
C378        C  0.35861503  0.15621574  0.16019724     0.36000
N379        N  0.37267865  0.36832881  0.14711289    -0.44200
N380        N  0.35731797  0.12044559  0.16352032    -0.44200
C381        C  0.38309300  0.26075800  0.37089727    -0.00600
C382        C  0.41454554  0.25381493  0.38212971    -0.12500
C383        C  0.42477847  0.27062959  0.41096910     0.01600
C384        C  0.40310238  0.29396527  0.42944258    -0.00700
C385        C  0.37246270  0.30346472  0.41727486    -0.12500
C386        C  0.36237002  0.28733723  0.38802807     0.01500
H387        H  0.43097355  0.23436802  0.36863326     0.14500
H388        H  0.35608241  0.32242907  0.43111384     0.14500
C389        C  0.33008589  0.29614549  0.37716661     0.36100
C390        C  0.45713301  0.26209207  0.42176380     0.36000
N391        N  0.30426999  0.30312552  0.36824324    -0.44200
N392        N  0.48319653  0.25569733  0.43021464    -0.44200
C393        C  0.48289994  0.63329630  0.39570036    -0.00600
C394        C  0.47545877  0.64065175  0.36367047    -0.12500
C395        C  0.99928016  0.63901648  0.34005270     0.01600
C396        C  0.03168144  0.62996942  0.34815990    -0.00700
C397        C  0.03864651  0.61970949  0.37971058    -0.12500
C398        C  0.01488711  0.62100821  0.40329297     0.01500
H399        H  0.45116210  0.64958456  0.35707760     0.14500
H400        H  0.06309713  0.61153207  0.38620864     0.14500
C401        C  0.02470753  0.61062203  0.43513031     0.36100
C402        C  0.98983682  0.64919932  0.30809330     0.36000
N403        N  0.03269153  0.60232832  0.46061141    -0.44200
N404        N  0.98204519  0.65714480  0.28249722    -0.44200
C405        C  0.50573245  0.77580093  0.98891224    -0.00600
C406        C  0.00507817  0.80190251  0.01572858    -0.12500
C407        C  0.03371892  0.81746430  0.02869828     0.01600
C408        C  0.06323632  0.80713930  0.01440031    -0.00700
C409        C  0.06341657  0.78493132  0.48571343    -0.12500
C410        C  0.03498124  0.76922263  0.47286904     0.01500
H411        H  0.98254712  0.80718235  0.02811853     0.14500
H412        H  0.08609608  0.77770605  0.47422445     0.14500
C413        C  0.53652173  0.74529301  0.44388722     0.36100
C414        C  0.03253554  0.84014146  0.05820086     0.36000
N415        N  0.53767298  0.72626011  0.42061933    -0.44200
N416        N  0.03164727  0.85825735  0.08188969    -0.44200
C417        C  0.25432563  0.74498668  0.01183716    -0.00600
C418        C  0.28230591  0.76329575  0.52347707    -0.12500
C419        C  0.31232090  0.75181244  0.51202601     0.01600
C420        C  0.31518306  0.71867162  0.48973875    -0.00700
C421        C  0.28728109  0.69697258  0.48075498    -0.12500
C422        C  0.25675529  0.71053397  0.99103693     0.01500
H423        H  0.28048116  0.78952725  0.53969858     0.14500
H424        H  0.28904440  0.67189469  0.46359963     0.14500
C425        C  0.22850311  0.69162810  0.97728376     0.36100
C426        C  0.33870144  0.77785085  0.52223856     0.36000
N427        N  0.20590985  0.67660485  0.96601648    -0.44200
N428        N  0.35841856  0.80059230  0.53100788    -0.44200
C429        C  0.40587380  0.55456607  0.49415633    -0.00600
C430        C  0.40106191  0.52411109  0.47059083    -0.12500
C431        C  0.40143722  0.48140125  0.47786709     0.01600
C432        C  0.40637462  0.46826352  0.00937759    -0.00700
C433        C  0.40941587  0.49868468  0.03318577    -0.12500
C434        C  0.40941154  0.54136528  0.02591562     0.01500
H435        H  0.39807216  0.53357507  0.44613395     0.14500
H436        H  0.41280192  0.48905761  0.05756481     0.14500
C437        C  0.41305995  0.57077418  0.05159669     0.36100
C438        C  0.39608974  0.45179001  0.45264007     0.36000
N439        N  0.41602275  0.59432988  0.07216656    -0.44200
N440        N  0.39165899  0.42805963  0.43244959    -0.44200
C441        C  0.37325758  0.79128408  0.31811972    -0.00600
C442        C  0.36004328  0.81105720  0.34486442    -0.12500
C443        C  0.36978212  0.79942304  0.37545909     0.01600
C444        C  0.39372892  0.76865181  0.37933416    -0.00700
C445        C  0.40858471  0.75131411  0.35287560    -0.12500
C446        C  0.39861534  0.76198153  0.32248279     0.01500
H447        H  0.34063524  0.83341816  0.34199091     0.14500
H448        H  0.42670539  0.72719926  0.35605200     0.14500
C449        C  0.41402581  0.74017063  0.29668711     0.36100
C450        C  0.35312907  0.81665855  0.40248083     0.36000
N451        N  0.42650052  0.72151644  0.27669065    -0.44200
N452        N  0.33977659  0.83013199  0.42425993    -0.44200
C453        C  0.40911529  0.72334784  0.06933069    -0.00600
C454        C  0.42823452  0.75185321  0.08567230    -0.12500
C455        C  0.41759202  0.76937071  0.11401949     0.01600
C456        C  0.38730884  0.75771554  0.12677953    -0.00700
C457        C  0.36897352  0.72722838  0.11121906    -0.12500
C458        C  0.37946007  0.71048370  0.08232431     0.01500
H459        H  0.45076028  0.76224476  0.07532664     0.14500
H460        H  0.34600413  0.71766675  0.12100449     0.14500
C461        C  0.35919765  0.68096879  0.06589775     0.36100
C462        C  0.43872166  0.79866626  0.12966750     0.36000
N463        N  0.34311768  0.65720312  0.05266953    -0.44200
N464        N  0.45587455  0.82182016  0.14220045    -0.44200
O465        O  0.39938708  0.73539989  0.51628422    -0.82300
C466        C  0.45815118  0.64306860  0.92053301     0.97100
O467        O  0.46615077  0.64201415  0.94949124    -0.71400
O468        O  0.48020023  0.71243119  0.97604917    -0.75000
Al469      Al  0.45067373  0.66992149  0.48668070     1.49000
C470        C  0.47707920  0.75060958  0.98181859     0.92300
O471        O  0.41504956  0.76266886  0.93135505    -0.81200
O472        O  0.35562019  0.67443120  0.96532272    -0.74800
Al473      Al  0.40792132  0.74705962  0.97407067     1.90100
O474        O  0.38459635  0.71197685  0.91265251    -0.73800
O475        O  0.39804337  0.61150145  0.95870143    -0.73700
O476        O  0.42999142  0.65449858  0.91254605    -0.79300
O477        O  0.42697765  0.62305829  0.50067430    -0.77600
O478        O  0.41789079  0.69384471  0.96666566    -1.13700
O479        O  0.44047773  0.69440457  0.52740832    -0.72900
C480        C  0.41657753  0.71635285  0.53596253     0.97800
C481        C  0.39830399  0.74694998  0.90939807     0.94200
Al482      Al  0.39381887  0.66525481  0.93947816     1.55600
O483        O  0.44964006  0.76649915  0.98441010    -0.77500
C484        C  0.40994493  0.59890102  0.98436973     0.98400
C485        C  0.34608565  0.71065381  0.97326433     0.93300
O486        O  0.36319209  0.74180089  0.96694497    -0.82800
O487        O  0.39383484  0.28009364  0.98289147    -0.82300
C488        C  0.45454887  0.36647410  0.58051459     0.97100
O489        O  0.46233255  0.37032520  0.55143333    -0.71400
O490        O  0.47087691  0.30161087  0.52000715    -0.75000
Al491      Al  0.44389026  0.34735906  0.51271129     1.49000
C492        C  0.46660785  0.26293161  0.52146240     0.92300
O493        O  0.39869259  0.25948079  0.57136874    -0.81200
O494        O  0.35100135  0.35659115  0.53441098    -0.74800
Al495      Al  0.39728994  0.27339104  0.52697255     1.90100
O496        O  0.37187075  0.31463659  0.58558812    -0.73800
O497        O  0.39907141  0.41165313  0.54463865    -0.73700
O498        O  0.42544750  0.35926683  0.58811531    -0.79300
O499        O  0.42289145  0.39781531  0.00040914    -0.77600
O500        O  0.41032602  0.32599656  0.53307001    -1.13700
O501        O  0.43107504  0.32672158  0.97191937    -0.72900
C502        C  0.40957255  0.30128412  0.96321725     0.97800
C503        C  0.38213183  0.27880164  0.59171227     0.94200
Al504      Al  0.38883553  0.35784778  0.56063764     1.55600
O505        O  0.43873572  0.24804228  0.52316169    -0.77500
C506        C  0.40925594  0.42354356  0.51829884     0.98400
C507        C  0.33824229  0.32235205  0.52576441     0.93300
O508        O  0.35300970  0.28791829  0.52825588    -0.82800
O509        O  0.14475484  0.22849598  0.53043193    -0.82300
C510        C  0.20331502  0.14908265  0.92800293     0.97100
O511        O  0.21188754  0.14595377  0.95661809    -0.71400
O512        O  0.22415690  0.21573268  0.98516656    -0.75000
Al513      Al  0.19705503  0.16999600  0.49520967     1.49000
C514        C  0.21949521  0.25349026  0.99175896     0.92300
O515        O  0.15436419  0.26451232  0.94593133    -0.81200
O516        O  0.10054707  0.16888696  0.97720648    -0.74800
Al517      Al  0.15025529  0.24467826  0.98837853     1.90100
O518        O  0.12598341  0.21266022  0.92620085    -0.73800
O519        O  0.14565319  0.11082781  0.96657902    -0.73700
O520        O  0.17449861  0.15928845  0.92121219    -0.79300
O521        O  0.17584628  0.12029231  0.50795046    -0.77600
O522        O  0.16227936  0.19308353  0.97782063    -1.13700
O523        O  0.18815662  0.18998600  0.53715005    -0.72900
C524        C  0.16356704  0.20833615  0.54805833     0.97800
C525        C  0.13879424  0.24815898  0.92338033     0.94200
Al526      Al  0.13851031  0.16505869  0.95005197     1.55600
O527        O  0.19162901  0.26672052  0.99714877    -0.77500
C528        C  0.15868607  0.09673741  0.99116603     0.98400
C529        C  0.08948876  0.20340188  0.98735660     0.93300
O530        O  0.10546160  0.23627773  0.98349244    -0.82800
O531        O  0.14757155  0.77696900  0.98712602    -0.82300
C532        C  0.20832845  0.86914279  0.57972590     0.97100
O533        O  0.21455793  0.87371598  0.55019507    -0.71400
O534        O  0.22568446  0.80747853  0.51621331    -0.75000
Al535      Al  0.19477285  0.84938295  0.51203895     1.49000
C536        C  0.22425850  0.76845565  0.51689593     0.92300
O537        O  0.16339447  0.75646054  0.57212779    -0.81200
O538        O  0.10460982  0.84684485  0.54000735    -0.74800
Al539      Al  0.15572319  0.77008850  0.52928961     1.90100
O540        O  0.13141826  0.80503172  0.59018810    -0.73800
O541        O  0.14896708  0.90691453  0.54905380    -0.73700
O542        O  0.18079907  0.85702378  0.58889968    -0.79300
O543        O  0.16920932  0.89689163  0.00253544    -0.77600
O544        O  0.16504157  0.82366252  0.53489384    -1.13700
O545        O  0.17967437  0.82729671  0.97149291    -0.72900
C546        C  0.15967574  0.79841848  0.96542145     0.97800
C547        C  0.14561893  0.77061758  0.59357846     0.94200
Al548      Al  0.14320559  0.85172666  0.56447296     1.55600
O549        O  0.19791978  0.75026069  0.52086361    -0.77500
C550        C  0.15715310  0.92094007  0.52264517     0.98400
C551        C  0.09416651  0.81161206  0.53086461     0.93300
O552        O  0.11049826  0.77855372  0.53485344    -0.82800
O553        O  0.11740126  0.26817688  0.77485584    -0.82300
C554        C  0.05258641  0.35446792  0.68054871     0.97100
O555        O  0.04653851  0.35819062  0.71018873    -0.71400
O556        O  0.03859274  0.29237266  0.74664457    -0.75000
Al557      Al  0.06793631  0.33682407  0.74852972     1.49000
C558        C  0.04201652  0.25356813  0.74566102     0.92300
O559        O  0.10559734  0.24338874  0.68940591    -0.81200
O560        O  0.15816837  0.34014219  0.71917667    -0.74800
Al561      Al  0.11063535  0.25977901  0.73231821     1.90100
O562        O  0.13292301  0.29569837  0.67077518    -0.73800
O563        O  0.11179170  0.39660375  0.71051088    -0.73700
O564        O  0.08059405  0.34414139  0.67110777    -0.79300
O565        O  0.09146252  0.38598690  0.75670425    -0.77600
O566        O  0.09864562  0.31244888  0.72568187    -1.13700
O567        O  0.08489575  0.31838519  0.78917272    -0.72900
C568        C  0.10593062  0.29105919  0.79601539     0.97800
C569        C  0.12337931  0.25871371  0.66845340     0.94200
Al570      Al  0.11891719  0.34154283  0.69553116     1.55600
O571        O  0.06889565  0.23731331  0.73977744    -0.77500
C572        C  0.10500490  0.40980491  0.73754789     0.98400
C573        C  0.17075155  0.30654951  0.72916716     0.93300
O574        O  0.15565086  0.27216213  0.72803533    -0.82800
O575        O  0.12461994  0.72777884  0.73523053    -0.82300
C576        C  0.05899358  0.63553505  0.82549833     0.97100
O577        O  0.05449223  0.63087413  0.79585128    -0.71400
O578        O  0.04488242  0.69846820  0.76419626    -0.75000
Al579      Al  0.07526166  0.65649735  0.75953318     1.49000
C580        C  0.04675752  0.73737835  0.76336902     0.92300
O581        O  0.10830047  0.74904738  0.82166635    -0.81200
O582        O  0.16503648  0.65599980  0.78995782    -0.74800
Al583      Al  0.11561109  0.73476727  0.77807487     1.90100
O584        O  0.13682144  0.69670152  0.83897516    -0.73800
O585        O  0.11955700  0.59694182  0.79595417    -0.73700
O586        O  0.08635331  0.64642984  0.83618764    -0.79300
O587        O  0.10069593  0.60947410  0.74933201    -0.77600
O588        O  0.10494602  0.68118390  0.78316893    -1.13700
O589        O  0.09072478  0.67895393  0.72044124    -0.72900
C590        C  0.11196894  0.70580108  0.71396360     0.97800
C591        C  0.12414469  0.73179618  0.84352559     0.94200
Al592      Al  0.12522899  0.65151380  0.81268193     1.55600
O593        O  0.07309061  0.75559078  0.76863079    -0.77500
C594        C  0.11277902  0.58449772  0.76867530     0.98400
C595        C  0.17721295  0.69112139  0.78298691     0.93300
O596        O  0.16080353  0.72454760  0.78452748    -0.82800
O597        O  0.36720084  0.23079032  0.73474966    -0.82300
C598        C  0.30136896  0.14385494  0.82878624     0.97100
O599        O  0.29494475  0.14046054  0.79948624    -0.71400
O600        O  0.28616666  0.21227621  0.77306442    -0.75000
Al601      Al  0.31351338  0.16756718  0.76279959     1.49000
C602        C  0.29124074  0.25067994  0.77066478     0.92300
O603        O  0.35623014  0.25519760  0.82102173    -0.81200
O604        O  0.40675314  0.15797693  0.78847244    -0.74800
Al605      Al  0.36076345  0.23982134  0.77765538     1.90100
O606        O  0.38183204  0.20054128  0.83906353    -0.73800
O607        O  0.35883976  0.10319290  0.79342657    -0.73700
O608        O  0.32970135  0.15303057  0.83766749    -0.79300
O609        O  0.33569370  0.11940419  0.74893960    -0.77600
O610        O  0.34704564  0.18793781  0.78402050    -1.13700
O611        O  0.32545573  0.19179365  0.72257245    -0.72900
C612        C  0.34886939  0.21465220  0.71452744     0.97800
C613        C  0.37266554  0.23779267  0.84236631     0.94200
Al614      Al  0.36746050  0.15617820  0.81228361     1.55600
O615        O  0.31949481  0.26475993  0.76990891    -0.77500
C616        C  0.34910539  0.09289948  0.76635236     0.98400
C617        C  0.42033952  0.19197623  0.78116663     0.93300
O618        O  0.40533619  0.22630768  0.78239025    -0.82800
O619        O  0.35975144  0.76805794  0.76684828    -0.82300
C620        C  0.30645677  0.86366552  0.67760578     0.97100
O621        O  0.29608486  0.84855371  0.70375236    -0.71400
O622        O  0.29729556  0.79262385  0.75189936    -0.75000
Al623      Al  0.32037472  0.84112130  0.74164896     1.49000
C624        C  0.29497544  0.75765243  0.73920875     0.92300
O625        O  0.36184954  0.75468111  0.67718862    -0.81200
O626        O  0.41602080  0.83666587  0.71321233    -0.74800
Al627      Al  0.35968813  0.76496090  0.72149408     1.90100
O628        O  0.38145224  0.81431804  0.66156311    -0.73800
O629        O  0.37818381  0.89960411  0.72219605    -0.73700
O630        O  0.33648136  0.87139214  0.67317012    -0.79300
O631        O  0.33004410  0.89829647  0.74061851    -0.77600
O632        O  0.35222920  0.81948253  0.71888000    -1.13700
O633        O  0.34551565  0.83319799  0.77937635    -0.72900
C634        C  0.35881268  0.79834322  0.78644805     0.97800
C635        C  0.37555834  0.77656259  0.65652524     0.94200
Al636      Al  0.37571542  0.85275309  0.69457705     1.55600
O637        O  0.31545490  0.74700855  0.71894338    -0.77500
C638        C  0.35512549  0.91795217  0.73492411     0.98400
C639        C  0.42463560  0.80070818  0.72201728     0.93300
O640        O  0.40470224  0.77126847  0.72397468    -0.82800
C641        C  0.35217270  0.04900959  0.75577254    -0.00600
C642        C  0.37860862  0.02499700  0.76605973    -0.12500
C643        C  0.38094336  0.98242764  0.75854362     0.01600
C644        C  0.35596257  0.96309243  0.74142739    -0.00700
C645        C  0.32990136  0.98712948  0.73075377    -0.12500
C646        C  0.32801842  0.02976375  0.73726203     0.01500
H647        H  0.39737710  0.03947040  0.78013073     0.14500
H648        H  0.31079455  0.97238396  0.71725679     0.14500
C649        C  0.30028506  0.05238389  0.72568920     0.36100
C650        C  0.40838770  0.95894726  0.76968619     0.36000
N651        N  0.27815407  0.07053632  0.71626453    -0.44200
N652        N  0.43042888  0.94010849  0.77851750    -0.44200
C653        C  0.26880377  0.72997968  0.75034628    -0.00600
C654        C  0.26154351  0.73127941  0.78285872    -0.12500
C655        C  0.23303686  0.71425328  0.79458880     0.01600
C656        C  0.21120143  0.69514805  0.77372527    -0.00700
C657        C  0.21966366  0.69024350  0.74170046    -0.12500
C658        C  0.24846631  0.70732873  0.72987660     0.01500
H659        H  0.27738318  0.74785315  0.79895911     0.14500
H660        H  0.20269256  0.67587697  0.72552766     0.14500
C661        C  0.25519936  0.70427421  0.69646519     0.36100
C662        C  0.22552377  0.71942075  0.82776961     0.36000
N663        N  0.26073229  0.70166052  0.66969494    -0.44200
N664        N  0.21945868  0.72351824  0.85432721    -0.44200
C665        C  0.01801342  0.75972214  0.75159926    -0.00600
C666        C  0.50254671  0.74138544  0.72560695    -0.12500
C667        C  0.47313045  0.75608553  0.71466333     0.01600
C668        C  0.45857063  0.79086335  0.72926083    -0.00700
C669        C  0.47481271  0.81119321  0.75417714    -0.12500
C670        C  0.00449912  0.79564262  0.76555537     0.01500
H671        H  0.51299158  0.71405618  0.71444536     0.14500
H672        H  0.46342158  0.83738253  0.76595607     0.14500
C673        C  0.01930803  0.81480044  0.79279514     0.36100
C674        C  0.45772635  0.73303812  0.68946061     0.36000
N675        N  0.03126385  0.82990373  0.81473151    -0.44200
N676        N  0.44581484  0.71362566  0.66955974    -0.44200
C677        C  0.26328634  0.27816207  0.76563420    -0.00600
C678        C  0.26114985  0.30020566  0.73694589    -0.12500
C679        C  0.23114834  0.31390051  0.72553576     0.01600
C680        C  0.20316503  0.30579096  0.74326793    -0.00700
C681        C  0.20606114  0.28860241  0.77362948    -0.12500
C682        C  0.23576856  0.27453658  0.78486961     0.01500
H683        H  0.28228349  0.30298279  0.72200914     0.14500
H684        H  0.18462671  0.28371372  0.78773185     0.14500
C685        C  0.23720296  0.25450469  0.81543863     0.36100
C686        C  0.22920604  0.33213796  0.69439067     0.36000
N687        N  0.23834567  0.23876672  0.84004178    -0.44200
N688        N  0.22756319  0.34678437  0.66942381    -0.44200
C689        C  0.01447201  0.22752668  0.75487312    -0.00600
C690        C  0.49397728  0.21105246  0.73170114    -0.12500
C691        C  0.46396779  0.19435571  0.74023257     0.01600
C692        C  0.45449578  0.19380507  0.77231808    -0.00700
C693        C  0.47608756  0.20738190  0.79552953    -0.12500
C694        C  0.00583417  0.22434388  0.78709825     0.01500
H695        H  0.50047002  0.21368153  0.70692078     0.14500
H696        H  0.46858671  0.20792176  0.82013321     0.14500
C697        C  0.02594460  0.24115759  0.81190223     0.36100
C698        C  0.44239345  0.18074020  0.71557224     0.36000
N699        N  0.04162824  0.25457966  0.83212004    -0.44200
N700        N  0.42533206  0.16964894  0.69563712    -0.44200
C701        C  0.11172553  0.45383316  0.74618998    -0.00600
C702        C  0.11580784  0.48329011  0.72189099    -0.12500
C703        C  0.11824351  0.52591764  0.72866699     0.01600
C704        C  0.11648718  0.53984953  0.76034453    -0.00700
C705        C  0.11515493  0.51017687  0.78473060    -0.12500
C706        C  0.11286186  0.46756664  0.77800588     0.01500
H707        H  0.11599455  0.47322519  0.69737488     0.14500
H708        H  0.11451254  0.52033647  0.80922455     0.14500
C709        C  0.11171290  0.43888569  0.80431559     0.36100
C710        C  0.12251186  0.55462516  0.70268946     0.36000
N711        N  0.11089988  0.41597508  0.82543606    -0.44200
N712        N  0.12603662  0.57782423  0.68202455    -0.44200
C713        C  0.23390535  0.87566440  0.60422116    -0.00600
C714        C  0.26651083  0.87096426  0.59585567    -0.12500
C715        C  0.29083081  0.86898414  0.61906833     0.01600
C716        C  0.28274032  0.87155882  0.65162817    -0.00700
C717        C  0.25043707  0.87887316  0.65976476    -0.12500
C718        C  0.22626466  0.88133191  0.63667179     0.01500
H719        H  0.27294033  0.86663026  0.57119439     0.14500
H720        H  0.24382910  0.88191336  0.68449574     0.14500
C721        C  0.19371801  0.88898106  0.64732747     0.36100
C722        C  0.32350667  0.86179239  0.60867026     0.36000
N723        N  0.16764465  0.89501341  0.65589384    -0.44200
N724        N  0.34968061  0.85618881  0.60022901    -0.44200
C725        C  0.15083903  0.78496751  0.93302947    -0.00600
C726        C  0.14410132  0.74233289  0.92972594    -0.12500
C727        C  0.13306444  0.72567550  0.90159923     0.01600
C728        C  0.12954687  0.75140950  0.87474481    -0.00700
C729        C  0.13568255  0.79448716  0.87769325    -0.12500
C730        C  0.14620793  0.81149718  0.90679728     0.01500
H731        H  0.14731125  0.72131699  0.94960809     0.14500
H732        H  0.13314054  0.81452048  0.85719073     0.14500
C733        C  0.15127067  0.85582941  0.90939952     0.36100
C734        C  0.12576130  0.68158571  0.90145155     0.36000
N735        N  0.15521034  0.89143013  0.91157525    -0.44200
N736        N  0.12039051  0.64620685  0.90188603    -0.46600
C737        C  0.13983530  0.74652733  0.62220294    -0.00600
C738        C  0.10952515  0.72821996  0.62616841    -0.12500
C739        C  0.10055568  0.71132740  0.65531849     0.01600
C740        C  0.12215951  0.71357184  0.68109482    -0.00700
C741        C  0.15340179  0.72933640  0.67618102    -0.12500
C742        C  0.16236517  0.74579412  0.64696036     0.01500
H743        H  0.09233296  0.72881730  0.60680202     0.14500
H744        H  0.17035675  0.73079128  0.69569606     0.14500
C745        C  0.19384484  0.76438862  0.64360140     0.36100
C746        C  0.06836075  0.69494540  0.65850363     0.36000
N747        N  0.21907813  0.77924905  0.64097323    -0.44200
N748        N  0.04254267  0.68173072  0.66071510    -0.44200
C749        C  0.15436212  0.96607350  0.51591629    -0.00600
C750        C  0.14454872  0.97907813  0.98578960    -0.12500
C751        C  0.14413490  0.02143647  0.97766957     0.01600
C752        C  0.15488036  0.05188638  0.99970967    -0.00700
C753        C  0.16403680  0.03866160  0.53014403    -0.12500
C754        C  0.16351742  0.99638879  0.53847817     0.01500
H755        H  0.13727322  0.95595567  0.96845008     0.14500
H756        H  0.17209922  0.06135158  0.54745869     0.14500
C757        C  0.17411952  0.98484071  0.56985733     0.36100
C758        C  0.13319009  0.03217038  0.94625921     0.36000
N759        N  0.18250369  0.97548276  0.59499835    -0.44200
N760        N  0.12417757  0.04074230  0.92116429    -0.44200
C761        C  0.13509027  0.23403036  0.64160693    -0.00600
C762        C  0.16760314  0.23880663  0.63314988    -0.12500
C763        C  0.17865429  0.22577902  0.60360174     0.01600
C764        C  0.15670159  0.20840820  0.58201967    -0.00700
C765        C  0.12521394  0.19894391  0.59191315    -0.12500
C766        C  0.11430488  0.21127137  0.62182399     0.01500
H767        H  0.18390271  0.25524245  0.64889603     0.14500
H768        H  0.10850633  0.18470233  0.57538970     0.14500
C769        C  0.08117866  0.20365388  0.63042935     0.36100
C770        C  0.21161300  0.23441117  0.59490075     0.36000
N771        N  0.05470493  0.19735869  0.63751296    -0.44200
N772        N  0.23807065  0.24116505  0.58802406    -0.44200
C773        C  0.11772729  0.28411443  0.82897686    -0.00600
C774        C  0.10758838  0.31032576  0.85388727    -0.12500
C775        C  0.11652255  0.30184827  0.88540870     0.01600
C776        C  0.13649271  0.26741979  0.89204207    -0.00700
C777        C  0.14837350  0.24324608  0.86725434    -0.12500
C778        C  0.13878963  0.25025113  0.83625957     0.01500
H779        H  0.09156438  0.33623411  0.84898774     0.14500
H780        H  0.16334912  0.21631549  0.87253893     0.14500
C781        C  0.14939001  0.21950440  0.81341909     0.36100
C782        C  0.10336553  0.32697110  0.91063495     0.36000
N783        N  0.15787646  0.19461764  0.79538501    -0.44200
N784        N  0.09285310  0.34706816  0.93093021    -0.44200
C785        C  0.22820830  0.14222182  0.90262775    -0.00600
C786        C  0.21892938  0.14058494  0.87059457    -0.12500
C787        C  0.24195367  0.13858165  0.84607818     0.01600
C788        C  0.27540465  0.13880625  0.85324609    -0.00700
C789        C  0.28449314  0.13836501  0.88523579    -0.12500
C790        C  0.26171934  0.13997252  0.90964529     0.01500
H791        H  0.19355836  0.14185412  0.86453653     0.14500
H792        H  0.30985470  0.13811421  0.89144372     0.14500
C793        C  0.27426253  0.14156897  0.94154767     0.36100
C794        C  0.23030776  0.13811001  0.81387947     0.36000
N795        N  0.28461014  0.14308721  0.96696830    -0.44200
N796        N  0.22098825  0.13768675  0.78805805    -0.44200
C797        C  0.05764647  0.20795215  0.00312792    -0.00600
C798        C  0.03017104  0.18853543  0.99039050    -0.12500
C799        C  0.49903691  0.20258343  0.49866840     0.01600
C800        C  0.49549382  0.23602510  0.52023893    -0.00700
C801        C  0.02254910  0.25082908  0.03611766    -0.12500
C802        C  0.05330689  0.23799987  0.02758135     0.01500
H803        H  0.03296779  0.16531669  0.97191424     0.14500
H804        H  0.01977724  0.27578712  0.05332786     0.14500
C805        C  0.07930511  0.26012272  0.04279676     0.36100
C806        C  0.47151925  0.18522903  0.48250842     0.36000
N807        N  0.09851773  0.27986521  0.05580896    -0.44200
N808        N  0.44939244  0.17147238  0.46952989    -0.44200
C809        C  0.30557217  0.31981325  0.51267649    -0.00600
C810        C  0.30242619  0.29927320  0.98348109    -0.12500
C811        C  0.27351994  0.28036915  0.97474976     0.01600
C812        C  0.24716156  0.28171690  0.49561489    -0.00700
C813        C  0.24911150  0.30625937  0.52317786    -0.12500
C814        C  0.27830147  0.32489508  0.53206184     0.01500
H815        H  0.32349644  0.29451765  0.96884799     0.14500
H816        H  0.22875449  0.30762435  0.53923347     0.14500
C817        C  0.28082466  0.34415683  0.56286176     0.36100
C818        C  0.27186549  0.25850095  0.94488927     0.36000
N819        N  0.28301334  0.35933300  0.58763231    -0.44200
N820        N  0.27050848  0.24133972  0.92082102    -0.44200
C821        C  0.47996465  0.36844356  0.60607277    -0.00600
C822        C  0.47061923  0.36489976  0.63807466    -0.12500
C823        C  0.99339209  0.36131221  0.66272352     0.01600
C824        C  0.02682843  0.36175831  0.65596389    -0.00700
C825        C  0.03615374  0.36661445  0.62411061    -0.12500
C826        C  0.01348381  0.36966902  0.59944966     0.01500
H827        H  0.44523218  0.36345564  0.64396153     0.14500
H828        H  0.06156008  0.36706945  0.61814514     0.14500
C829        C  0.02583664  0.37218451  0.56755842     0.36100
C830        C  0.48144996  0.35478129  0.69440791     0.36000
N831        N  0.03594139  0.37395575  0.54206943    -0.44200
N832        N  0.47174181  0.34931851  0.71973530    -0.44200
C833        C  0.37349436  0.26087204  0.62289458    -0.00600
C834        C  0.37037322  0.21744514  0.62697692    -0.12500
C835        C  0.36043704  0.20082890  0.65627158     0.01600
C836        C  0.35378803  0.22799552  0.68167811    -0.00700
C837        C  0.35623390  0.27097953  0.67729892    -0.12500
C838        C  0.36622644  0.28761220  0.64871466     0.01500
H839        H  0.37553449  0.19664141  0.60739026     0.14500
H840        H  0.35127297  0.29189045  0.69695774     0.14500
C841        C  0.36992843  0.33243106  0.64758885     0.36100
C842        C  0.35861487  0.15621599  0.66019728     0.36000
N843        N  0.37268072  0.36832887  0.64711353    -0.44200
N844        N  0.35731761  0.12044586  0.66352041    -0.44200
C845        C  0.38309281  0.26075778  0.87089732    -0.00600
C846        C  0.41454540  0.25381463  0.88212961    -0.12500
C847        C  0.42477854  0.27062933  0.91096892     0.01600
C848        C  0.40310261  0.29396517  0.92944248    -0.00700
C849        C  0.37246289  0.30346471  0.91727489    -0.12500
C850        C  0.36236999  0.28733719  0.88802819     0.01500
H851        H  0.43097329  0.23436753  0.86863313     0.14500
H852        H  0.35608275  0.32242920  0.93111393     0.14500
C853        C  0.33008584  0.29614571  0.87716690     0.36100
C854        C  0.45713311  0.26209165  0.92176344     0.36000
N855        N  0.30426994  0.30312605  0.86824366    -0.44200
N856        N  0.48319665  0.25569668  0.93021409    -0.44200
C857        C  0.48290007  0.63329637  0.89570040    -0.00600
C858        C  0.47545883  0.64065176  0.86367051    -0.12500
C859        C  0.99928006  0.63901673  0.84005273     0.01600
C860        C  0.03168133  0.62996955  0.84815993    -0.00700
C861        C  0.03864634  0.61970950  0.87971061    -0.12500
C862        C  0.01488689  0.62100814  0.90329300     0.01500
H863        H  0.45116214  0.64958452  0.85707767     0.14500
H864        H  0.06309692  0.61153194  0.88620867     0.14500
C865        C  0.02470723  0.61062166  0.93513032     0.36100
C866        C  0.98983673  0.64919959  0.80809329     0.36000
N867        N  0.03269116  0.60232763  0.96061139    -0.44200
N868        N  0.98204509  0.65714504  0.78249723    -0.44200
C869        C  0.50573251  0.77580069  0.48891190    -0.00600
C870        C  0.00507819  0.80190276  0.51572877    -0.12500
C871        C  0.03371893  0.81746449  0.52869857     0.01600
C872        C  0.06323635  0.80713955  0.51440059    -0.00700
C873        C  0.06341652  0.78493095  0.98571317    -0.12500
C874        C  0.03498114  0.76922219  0.97286887     0.01500
H875        H  0.98254713  0.80718257  0.52811868     0.14500
H876        H  0.08609601  0.77770562  0.97422420     0.14500
C877        C  0.53652176  0.74529355  0.94388748     0.36100
C878        C  0.03253550  0.84014167  0.55820114     0.36000
N879        N  0.53767310  0.72626093  0.92061948    -0.44200
N880        N  0.03164713  0.85825765  0.58188994    -0.44200
C881        C  0.25432557  0.74498656  0.51183728    -0.00600
C882        C  0.28230599  0.76329585  0.02347690    -0.12500
C883        C  0.31232096  0.75181270  0.01202569     0.01600
C884        C  0.31518308  0.71867178  0.98973847    -0.00700
C885        C  0.28728111  0.69697275  0.98075479    -0.12500
C886        C  0.25675525  0.71053384  0.49103710     0.01500
H887        H  0.28048126  0.78952739  0.03969841     0.14500
H888        H  0.28904437  0.67189480  0.96359939     0.14500
C889        C  0.22850308  0.69162777  0.47728408     0.36100
C890        C  0.33870145  0.77785137  0.02223801     0.36000
N891        N  0.20590977  0.67660434  0.46601704    -0.44200
N892        N  0.35841850  0.80059304  0.03100723    -0.44200
C893        C  0.40587393  0.55456599  0.99415636    -0.00600
C894        C  0.40106185  0.52411101  0.97059090    -0.12500
C895        C  0.40143726  0.48140115  0.97786716     0.01600
C896        C  0.40637442  0.46826365  0.50937756    -0.00700
C897        C  0.40941549  0.49868479  0.53318576    -0.12500
C898        C  0.40941118  0.54136537  0.52591562     0.01500
H899        H  0.39807191  0.53357500  0.94613406     0.14500
H900        H  0.41280137  0.48905769  0.55756482     0.14500
C901        C  0.41305933  0.57077421  0.55159674     0.36100
C902        C  0.39608960  0.45178991  0.95264016     0.36000
N903        N  0.41602191  0.59432981  0.57216671    -0.44200
N904        N  0.39165863  0.42805956  0.93244972    -0.44200
C905        C  0.37325771  0.79128413  0.81811966    -0.00600
C906        C  0.36004271  0.81105643  0.84486436    -0.12500
C907        C  0.36978143  0.79942218  0.87545905     0.01600
C908        C  0.39372889  0.76865181  0.87933415    -0.00700
C909        C  0.40858531  0.75131495  0.85287561    -0.12500
C910        C  0.39861601  0.76198239  0.82248277     0.01500
H911        H  0.34063424  0.83341676  0.84199080     0.14500
H912        H  0.42670648  0.72720073  0.85605202     0.14500
C913        C  0.41402712  0.74017230  0.79668706     0.36100
C914        C  0.35312767  0.81665664  0.90248075     0.36000
N915        N  0.42650230  0.72151864  0.77669061    -0.44200
N916        N  0.33977457  0.83012914  0.92425981    -0.44200
C917        C  0.40911552  0.72334768  0.56933067    -0.00600
C918        C  0.42823450  0.75185361  0.58567200    -0.12500
C919        C  0.41759190  0.76937133  0.61401910     0.01600
C920        C  0.38730894  0.75771565  0.62677937    -0.00700
C921        C  0.36897390  0.72722796  0.61121917    -0.12500
C922        C  0.37946051  0.71048314  0.58232448     0.01500
H923        H  0.45076008  0.76224540  0.57532617     0.14500
H924        H  0.34600465  0.71766605  0.62100472     0.14500
C925        C  0.35919827  0.68096787  0.56589809     0.36100
C926        C  0.43872125  0.79866756  0.62966676     0.36000
N927        N  0.34311846  0.65720201  0.55266989    -0.44200
N928        N  0.45587394  0.82182199  0.64219945    -0.44200
O929        O  0.89938706  0.73540015  0.01628447    -0.82300
C930        C  0.95815126  0.64306895  0.42053310     0.97100
O931        O  0.96615091  0.64201453  0.44949132    -0.71400
O932        O  0.98020034  0.71243159  0.47604927    -0.75000
Al933      Al  0.95067370  0.66992173  0.98668098     1.49000
C934        C  0.97707928  0.75060997  0.48181875     0.92300
O935        O  0.91504954  0.76266941  0.43135534    -0.81200
O936        O  0.85562035  0.67443158  0.46532301    -0.74800
Al937      Al  0.90792139  0.74705999  0.47407091     1.90100
O938        O  0.88459652  0.71197725  0.41265271    -0.73800
O939        O  0.89804339  0.61150184  0.45870161    -0.73700
O940        O  0.92999149  0.65449893  0.41254621    -0.79300
O941        O  0.92697762  0.62305839  0.00067450    -0.77600
O942        O  0.91789091  0.69384509  0.46666581    -1.13700
O943        O  0.94047764  0.69440467  0.02740866    -0.72900
C944        C  0.91657746  0.71635304  0.03596282     0.97800
C945        C  0.89830408  0.74695045  0.40939832     0.94200
Al946      Al  0.89381896  0.66525519  0.43947836     1.55600
O947        O  0.94964013  0.76649948  0.48441038    -0.77500
C948        C  0.90994501  0.59890138  0.48436988     0.98400
C949        C  0.84608581  0.71065419  0.47326462     0.93300
O950        O  0.86319220  0.74180127  0.46694515    -0.82800
O951        O  0.89383490  0.28009362  0.48289151    -0.82300
C952        C  0.95454875  0.36647421  0.08051457     0.97100
O953        O  0.96233242  0.37032539  0.05143332    -0.71400
O954        O  0.97087691  0.30161102  0.02000708    -0.75000
Al955      Al  0.94389017  0.34735918  0.01271129     1.49000
C956        C  0.96660795  0.26293173  0.02146243     0.92300
O957        O  0.89869267  0.25948088  0.07136882    -0.81200
O958        O  0.85100130  0.35659096  0.03441083    -0.74800
Al959      Al  0.89729006  0.27339093  0.02697259     1.90100
O960        O  0.87187061  0.31463658  0.08558800    -0.73800
O961        O  0.89907124  0.41165315  0.04463862    -0.73700
O962        O  0.92544738  0.35926688  0.08811527    -0.79300
O963        O  0.92289133  0.39781566  0.50040909    -0.77600
O964        O  0.91032600  0.32599656  0.03306999    -1.13700
O965        O  0.93107476  0.32672200  0.47191934    -0.72900
C966        C  0.90957243  0.30128431  0.46321728     0.97800
C967        C  0.88213182  0.27880173  0.09171229     0.94200
Al968      Al  0.88883542  0.35784775  0.06063756     1.55600
O969        O  0.93873588  0.24804227  0.02316186    -0.77500
C970        C  0.90925582  0.42354361  0.01829883     0.98400
C971        C  0.83824232  0.32235180  0.02576425     0.93300
O972        O  0.85300978  0.28791807  0.02825576    -0.82800
O973        O  0.64475479  0.22849571  0.03043194    -0.82300
C974        C  0.70331490  0.14908263  0.42800295     0.97100
O975        O  0.71188739  0.14595360  0.45661811    -0.71400
O976        O  0.72415684  0.21573244  0.48516681    -0.75000
Al977      Al  0.69705489  0.16999570  0.99520957     1.49000
C978        C  0.71949513  0.25349004  0.49175917     0.92300
O979        O  0.65436407  0.26451220  0.44593157    -0.81200
O980        O  0.60054701  0.16888669  0.47720667    -0.74800
Al981      Al  0.65025519  0.24467802  0.48837876     1.90100
O982        O  0.62598323  0.21266020  0.42620105    -0.73800
O983        O  0.64565313  0.11082758  0.46657891    -0.73700
O984        O  0.67449849  0.15928849  0.42121222    -0.79300
O985        O  0.67584614  0.12029204  0.00795038    -0.77600
O986        O  0.66227925  0.19308332  0.47782077    -1.13700
O987        O  0.68815659  0.18998575  0.03715000    -0.72900
C988        C  0.66356700  0.20833586  0.04805831     0.97800
C989        C  0.63879414  0.24815891  0.42338055     0.94200
Al990      Al  0.63851020  0.16505858  0.45005206     1.55600
O991        O  0.69162891  0.26672028  0.49714892    -0.77500
C992        C  0.65868597  0.09673717  0.49116593     0.98400
C993        C  0.58948866  0.20340158  0.48735681     0.93300
O994        O  0.60546149  0.23627746  0.48349273    -0.82800
O995        O  0.64757180  0.77696845  0.48712612    -0.82300
C996        C  0.70832818  0.86914262  0.07972613     0.97100
O997        O  0.71455767  0.87371589  0.05019530    -0.71400
O998        O  0.72568434  0.80747854  0.01621357    -0.75000
Al999      Al  0.69477269  0.84938285  0.01203913     1.49000
C1000       C  0.72425841  0.76845566  0.01689624     0.92300
O1001       O  0.66339430  0.75646035  0.07212792    -0.81200
O1002       O  0.60460963  0.84684451  0.04000738    -0.74800
Al1003     Al  0.65572308  0.77008831  0.02928974     1.90100
O1004       O  0.63141797  0.80503140  0.09018817    -0.73800
O1005       O  0.64896684  0.90691428  0.04905391    -0.73700
O1006       O  0.68079879  0.85702359  0.08889988    -0.79300
O1007       O  0.66920899  0.89689141  0.50253557    -0.77600
O1008       O  0.66504139  0.82366234  0.03489398    -1.13700
O1009       O  0.67967424  0.82729652  0.47149299    -0.72900
C1010       C  0.65967577  0.79841811  0.46542155     0.97800
C1011       C  0.64561873  0.77061733  0.09357859     0.94200
Al1012     Al  0.64320534  0.85172641  0.06447307     1.55600
O1013       O  0.69791970  0.75026068  0.02086385    -0.77500
C1014       C  0.65715284  0.92093985  0.02264527     0.98400
C1015       C  0.59416639  0.81161167  0.03086462     0.93300
O1016       O  0.61049816  0.77855337  0.03485352    -0.82800
O1017       O  0.61740112  0.26817642  0.27485597    -0.82300
C1018       C  0.55258633  0.35446772  0.18054886     0.97100
O1019       O  0.54653844  0.35819034  0.21018889    -0.71400
O1020       O  0.53859270  0.29237234  0.24664484    -0.75000
Al1021     Al  0.56793628  0.33682378  0.24852987     1.49000
C1022       C  0.54201647  0.25356783  0.24566105     0.92300
O1023       O  0.60559743  0.24338848  0.18940599    -0.81200
O1024       O  0.65816835  0.34014192  0.21917673    -0.74800
Al1025     Al  0.61063531  0.25977872  0.23231830     1.90100
O1026       O  0.63292305  0.29569811  0.17077525    -0.73800
O1027       O  0.61179161  0.39660348  0.21051097    -0.73700
O1028       O  0.58059395  0.34414112  0.17110789    -0.79300
O1029       O  0.59146246  0.38598664  0.25670436    -0.77600
O1030       O  0.59864559  0.31244860  0.22568198    -1.13700
O1031       O  0.58489578  0.31838491  0.28917281    -0.72900
C1032       C  0.60593055  0.29105883  0.29601550     0.97800
C1033       C  0.62337938  0.25871345  0.16845347     0.94200
Al1034     Al  0.61891714  0.34154256  0.19553125     1.55600
O1035       O  0.56889559  0.23731306  0.23977730    -0.77500
C1036       C  0.60500490  0.40980462  0.23754801     0.98400
C1037       C  0.67075151  0.30654927  0.22916733     0.93300
O1038       O  0.65565080  0.27216190  0.22803560    -0.82800
O1039       O  0.62462010  0.72777824  0.23523077    -0.82300
C1040       C  0.55899382  0.63553452  0.32549854     0.97100
O1041       O  0.55449258  0.63087346  0.29585149    -0.71400
O1042       O  0.54488260  0.69846742  0.26419631    -0.75000
Al1043     Al  0.57526194  0.65649668  0.25953338     1.49000
C1044       C  0.54675763  0.73737757  0.26336898     0.92300
O1045       O  0.60830033  0.74904693  0.32166653    -0.81200
O1046       O  0.66503666  0.65599959  0.28995819    -0.74800
Al1047     Al  0.61561113  0.73476677  0.27807508     1.90100
O1048       O  0.63682156  0.69670133  0.33897540    -0.73800
O1049       O  0.61955733  0.59694136  0.29595453    -0.73700
O1050       O  0.58635349  0.64642947  0.33618791    -0.79300
O1051       O  0.60069634  0.60947354  0.24933231    -0.77600
O1052       O  0.60494619  0.68118340  0.28316917    -1.13700
O1053       O  0.59072500  0.67895330  0.22044143    -0.72900
C1054       C  0.61196911  0.70580050  0.21396380     0.97800
C1055       C  0.62414462  0.73179589  0.34352579     0.94200
Al1056     Al  0.62522919  0.65151346  0.31268224     1.55600
O1057       O  0.57309066  0.75559006  0.26863085    -0.77500
C1058       C  0.61277941  0.58449721  0.26867564     0.98400
C1059       C  0.67721306  0.69112123  0.28298734     0.93300
O1060       O  0.66080356  0.72454738  0.28452786    -0.82800
O1061       O  0.86720100  0.23079069  0.23474980    -0.82300
C1062       C  0.80136891  0.14385523  0.32878628     0.97100
O1063       O  0.79494468  0.14046098  0.29948628    -0.71400
O1064       O  0.78616677  0.21227667  0.27306453    -0.75000
Al1065     Al  0.81351340  0.16756760  0.26279969     1.49000
C1066       C  0.79124087  0.25068038  0.27066486     0.92300
O1067       O  0.85623024  0.25519796  0.32102182    -0.81200
O1068       O  0.90675322  0.15797727  0.28847270    -0.74800
Al1069     Al  0.86076358  0.23982170  0.27765551     1.90100
O1070       O  0.88183190  0.20054146  0.33906367    -0.73800
O1071       O  0.85883976  0.10319324  0.29342656    -0.73700
O1072       O  0.82970132  0.15303072  0.33766751    -0.79300
O1073       O  0.83569357  0.11940455  0.24893966    -0.77600
O1074       O  0.84704568  0.18793816  0.28402061    -1.13700
O1075       O  0.82545583  0.19179406  0.22257261    -0.72900
C1076       C  0.84886951  0.21465258  0.21452760     0.97800
C1077       C  0.87266548  0.23779286  0.34236643     0.94200
Al1078     Al  0.86746048  0.15617846  0.31228371     1.55600
O1079       O  0.81949495  0.26476037  0.26990898    -0.77500
C1080       C  0.84910531  0.09289984  0.26635237     0.98400
C1081       C  0.92033967  0.19197654  0.28116693     0.93300
O1082       O  0.90533636  0.22630802  0.28239049    -0.82800
O1083       O  0.85975128  0.76805838  0.26684863    -0.82300
C1084       C  0.80645656  0.86366556  0.17760604     0.97100
O1085       O  0.79608469  0.84855399  0.20375273    -0.71400
O1086       O  0.79729550  0.79262417  0.25189983    -0.75000
Al1087     Al  0.82037464  0.84112169  0.24164927     1.49000
C1088       C  0.79497530  0.75765282  0.23920912     0.92300
O1089       O  0.86184937  0.75468134  0.17718896    -0.81200
O1090       O  0.91602066  0.83666617  0.21321258    -0.74800
Al1091     Al  0.85968797  0.76496125  0.22149441     1.90100
O1092       O  0.88145216  0.81431816  0.16156335    -0.73800
O1093       O  0.87818360  0.89960447  0.22219592    -0.73700
O1094       O  0.83648114  0.87139213  0.17317024    -0.79300
O1095       O  0.83004399  0.89829688  0.24061864    -0.77600
O1096       O  0.85222906  0.81948285  0.21888026    -1.13700
O1097       O  0.84551571  0.83319852  0.27937661    -0.72900
C1098       C  0.85881263  0.79834371  0.28644835     0.97800
C1099       C  0.87555815  0.77656273  0.15652553     0.94200
Al1100     Al  0.87571525  0.85275329  0.19457719     1.55600
O1101       O  0.81545470  0.74700900  0.21894367    -0.77500
C1102       C  0.85512534  0.91795255  0.23492404     0.98400
C1103       C  0.92463546  0.80070850  0.22201761     0.93300
O1104       O  0.90470211  0.77126877  0.22397503    -0.82800
C1105       C  0.85217267  0.04900996  0.25577249    -0.00600
C1106       C  0.87860833  0.02499719  0.26606010    -0.12500
C1107       C  0.88094306  0.98242784  0.25854394     0.01600
C1108       C  0.85596253  0.96309282  0.24142725    -0.00700
C1109       C  0.82990162  0.98713004  0.23075313    -0.12500
C1110       C  0.82801872  0.02976431  0.23726144     0.01500
H1111       H  0.89737660  0.03947042  0.28013146     0.14500
H1112       H  0.81079505  0.97238466  0.21725580     0.14500
C1113       C  0.80028567  0.05238463  0.22568809     0.36100
C1114       C  0.90838710  0.95894731  0.26968700     0.36000
N1115       N  0.77815497  0.07053724  0.21626299    -0.44200
N1116       N  0.93042807  0.94010851  0.27851877    -0.44200
C1117       C  0.76880367  0.72998001  0.25034663    -0.00600
C1118       C  0.76154346  0.73127972  0.28285908    -0.12500
C1119       C  0.73303692  0.71425338  0.29458922     0.01600
C1120       C  0.71120152  0.69514800  0.27372572    -0.00700
C1121       C  0.71966375  0.69024342  0.24170092    -0.12500
C1122       C  0.74846625  0.70732894  0.22987696     0.01500
H1123       H  0.77738305  0.74785363  0.29895942     0.14500
H1124       H  0.70269268  0.67587662  0.22552815     0.14500
C1125       C  0.75519924  0.70427455  0.19646552     0.36100
C1126       C  0.72552388  0.71942090  0.32777005     0.36000
N1127       N  0.76073217  0.70166090  0.16969527    -0.44200
N1128       N  0.71945885  0.72351855  0.35432763    -0.44200
C1129       C  0.51801353  0.75972134  0.25159919    -0.00600
C1130       C  0.00254673  0.74138604  0.22560706    -0.12500
C1131       C  0.97313032  0.75608589  0.21466363     0.01600
C1132       C  0.95857052  0.79086371  0.22926113    -0.00700
C1133       C  0.97481268  0.81119372  0.25417734    -0.12500
C1134       C  0.50449952  0.79564226  0.26555494     0.01500
H1135       H  0.01299159  0.71405680  0.21444546     0.14500
H1136       H  0.96342159  0.83738304  0.26595626     0.14500
C1137       C  0.51930869  0.81480050  0.29279441     0.36100
C1138       C  0.95772601  0.73303816  0.18946117     0.36000
N1139       N  0.53126467  0.82990407  0.31473056    -0.44200
N1140       N  0.94581428  0.71362545  0.16956057    -0.44200
C1141       C  0.76328643  0.27816244  0.26563433    -0.00600
C1142       C  0.76114983  0.30020600  0.23694602    -0.12500
C1143       C  0.73114826  0.31390063  0.22553592     0.01600
C1144       C  0.70316499  0.30579075  0.24326805    -0.00700
C1145       C  0.70606118  0.28860225  0.27362960    -0.12500
C1146       C  0.73576867  0.27453674  0.28486974     0.01500
H1147       H  0.78228343  0.30298335  0.22200924     0.14500
H1148       H  0.68462676  0.28371346  0.28773200     0.14500
C1149       C  0.73720319  0.25450488  0.31543876     0.36100
C1150       C  0.72920585  0.33213819  0.19439086     0.36000
N1151       N  0.73834602  0.23876683  0.34004188    -0.44200
N1152       N  0.72756287  0.34678448  0.16942398    -0.44200
C1153       C  0.51447202  0.22752629  0.25487313    -0.00600
C1154       C  0.99397741  0.21105258  0.23170123    -0.12500
C1155       C  0.96396784  0.19435603  0.24023271     0.01600
C1156       C  0.95449595  0.19380526  0.27231826    -0.00700
C1157       C  0.97608794  0.20738159  0.29552970    -0.12500
C1158       C  0.50583416  0.22434351  0.28709827     0.01500
H1159       H  0.00047003  0.21368188  0.20692089     0.14500
H1160       H  0.96858722  0.20792130  0.32013339     0.14500
C1161       C  0.52594451  0.24115741  0.31190225     0.36100
C1162       C  0.94239338  0.18074090  0.21557238     0.36000
N1163       N  0.54162807  0.25457963  0.33212006    -0.44200
N1164       N  0.92533193  0.16964993  0.19563721    -0.44200
C1165       C  0.61172579  0.45383276  0.24619019    -0.00600
C1166       C  0.61580829  0.48328973  0.22189124    -0.12500
C1167       C  0.61824408  0.52591722  0.22866729     0.01600
C1168       C  0.61648762  0.53984904  0.26034486    -0.00700
C1169       C  0.61515533  0.51017634  0.28473089    -0.12500
C1170       C  0.61286224  0.46756613  0.27800613     0.01500
H1171       H  0.61599502  0.47322487  0.19737510     0.14500
H1172       H  0.61451297  0.52033591  0.30922487     0.14500
C1173       C  0.61171351  0.43888507  0.30431577     0.36100
C1174       C  0.62251272  0.55462478  0.20268986     0.36000
N1175       N  0.61090072  0.41597427  0.32543614    -0.44200
N1176       N  0.62603771  0.57782400  0.18202508    -0.44200
C1177       C  0.73390511  0.87566413  0.10422138    -0.00600
C1178       C  0.76651059  0.87096376  0.09585593    -0.12500
C1179       C  0.79083056  0.86898361  0.11906856     0.01600
C1180       C  0.78274008  0.87155857  0.15162840    -0.00700
C1181       C  0.75043684  0.87887291  0.15976498    -0.12500
C1182       C  0.72626444  0.88133166  0.13667201     0.01500
H1183       H  0.77294010  0.86662960  0.07119463     0.14500
H1184       H  0.74382888  0.88191314  0.18449597     0.14500
C1185       C  0.69371779  0.88898083  0.14732769     0.36100
C1186       C  0.82350639  0.86179151  0.10867046     0.36000
N1187       N  0.66764446  0.89501313  0.15589408    -0.44200
N1188       N  0.84968026  0.85618763  0.10022910    -0.44200
C1189       C  0.65083895  0.78496723  0.43302958    -0.00600
C1190       C  0.64410130  0.74233260  0.42972605    -0.12500
C1191       C  0.63306430  0.72567524  0.40159939     0.01600
C1192       C  0.62954665  0.75140926  0.37474499    -0.00700
C1193       C  0.63568221  0.79448695  0.37769344    -0.12500
C1194       C  0.64620758  0.81149696  0.40679747     0.01500
H1195       H  0.64731139  0.72131666  0.44960814     0.14500
H1196       H  0.63314005  0.81452029  0.35719095     0.14500
C1197       C  0.65126990  0.85582928  0.40939985     0.36100
C1198       C  0.62576119  0.68158545  0.40145175     0.36000
N1199       N  0.65520923  0.89143003  0.41157578    -0.44200
N1200       N  0.62039041  0.64620659  0.40188632    -0.46600
C1201       C  0.63983518  0.74652708  0.12220311    -0.00600
C1202       C  0.60952500  0.72821988  0.12616870    -0.12500
C1203       C  0.60055566  0.71132712  0.15531876     0.01600
C1204       C  0.62215961  0.71357136  0.18109501    -0.00700
C1205       C  0.65340191  0.72933581  0.17618109    -0.12500
C1206       C  0.66236519  0.74579359  0.14696041     0.01500
H1207       H  0.59233270  0.72881745  0.10680242     0.14500
H1208       H  0.67035698  0.73079056  0.19569608     0.14500
C1209       C  0.69384487  0.76438794  0.14360131     0.36100
C1210       C  0.56836072  0.69494516  0.15850394     0.36000
N1211       N  0.71907820  0.77924830  0.14097305    -0.44200
N1212       N  0.54254263  0.68173051  0.16071542    -0.44200
C1213       C  0.65436181  0.96607326  0.01591640    -0.00600
C1214       C  0.64454868  0.97907791  0.48578955    -0.12500
C1215       C  0.64413501  0.02143620  0.47766940     0.01600
C1216       C  0.65488025  0.05188615  0.49970958    -0.00700
C1217       C  0.66403672  0.03866135  0.03014401    -0.12500
C1218       C  0.66351725  0.99638856  0.03847820     0.01500
H1219       H  0.63727326  0.95595536  0.46844999     0.14500
H1220       H  0.67209922  0.06135135  0.04745862     0.14500
C1221       C  0.67411955  0.98484049  0.06985734     0.36100
C1222       C  0.63319071  0.03217007  0.44625884     0.36000
N1223       N  0.68250396  0.97548255  0.09499827    -0.44200
N1224       N  0.62417867  0.04074202  0.42116375    -0.44200
C1225       C  0.63509026  0.23403007  0.14160696    -0.00600
C1226       C  0.66760313  0.23880625  0.13314989    -0.12500
C1227       C  0.67865425  0.22577869  0.10360171     0.01600
C1228       C  0.65670152  0.20840790  0.08201965    -0.00700
C1229       C  0.62521384  0.19894372  0.09191316    -0.12500
C1230       C  0.61430480  0.21127117  0.12182401     0.01500
H1231       H  0.68390273  0.25524189  0.14889605     0.14500
H1232       H  0.60850615  0.18470221  0.07538970     0.14500
C1233       C  0.58117856  0.20365386  0.13042941     0.36100
C1234       C  0.71161303  0.23441057  0.09490083     0.36000
N1235       N  0.55470482  0.19735878  0.13751305    -0.44200
N1236       N  0.73807079  0.24116418  0.08802436    -0.44200
C1237       C  0.61772724  0.28411422  0.32897698    -0.00600
C1238       C  0.60758821  0.31032550  0.35388737    -0.12500
C1239       C  0.61652239  0.30184810  0.38540883     0.01600
C1240       C  0.63649268  0.26741975  0.39204226    -0.00700
C1241       C  0.64837359  0.24324613  0.36725453    -0.12500
C1242       C  0.63878974  0.25025112  0.33625973     0.01500
H1243       H  0.59156409  0.33623374  0.34898782     0.14500
H1244       H  0.66334928  0.21631558  0.37253912     0.14500
C1245       C  0.64939018  0.21950441  0.31341929     0.36100
C1246       C  0.60336523  0.32697086  0.41063505     0.36000
N1247       N  0.65787663  0.19461761  0.29538524    -0.44200
N1248       N  0.59285273  0.34706789  0.43093029    -0.44200
C1249       C  0.72820822  0.14222194  0.40262779    -0.00600
C1250       C  0.71892932  0.14058494  0.37059460    -0.12500
C1251       C  0.74195365  0.13858167  0.34607824     0.01600
C1252       C  0.77540461  0.13880661  0.35324616    -0.00700
C1253       C  0.78449309  0.13836565  0.38523586    -0.12500
C1254       C  0.76171926  0.13997294  0.40964535     0.01500
H1255       H  0.69355831  0.14185392  0.36453656     0.14500
H1256       H  0.80985464  0.13811519  0.39144380     0.14500
C1257       C  0.77426242  0.14156966  0.44154773     0.36100
C1258       C  0.73030775  0.13810952  0.31387954     0.36000
N1259       N  0.78461002  0.14308818  0.46696836    -0.44200
N1260       N  0.72098819  0.13768585  0.28805816    -0.44200
C1261       C  0.55764632  0.20795176  0.50312807    -0.00600
C1262       C  0.53017090  0.18853529  0.49039045    -0.12500
C1263       C  0.99903704  0.20258353  0.99866855     0.01600
C1264       C  0.99549398  0.23602532  0.02023896    -0.00700
C1265       C  0.52254891  0.25082860  0.53611781    -0.12500
C1266       C  0.55330672  0.23799932  0.52758163     0.01500
H1267       H  0.53296769  0.16531661  0.47191407     0.14500
H1268       H  0.51977705  0.27578664  0.55332807     0.14500
C1269       C  0.57930495  0.26012213  0.54279706     0.36100
C1270       C  0.97151938  0.18522900  0.98250866     0.36000
N1271       N  0.59851765  0.27986465  0.55580918    -0.44200
N1272       N  0.94939253  0.17147229  0.96953022    -0.44200
C1273       C  0.80557218  0.31981292  0.01267637    -0.00600
C1274       C  0.80242608  0.29927326  0.48348123    -0.12500
C1275       C  0.77351985  0.28036909  0.47474997     0.01600
C1276       C  0.74716157  0.28171644  0.99561489    -0.00700
C1277       C  0.74911157  0.30625882  0.02317790    -0.12500
C1278       C  0.77830152  0.32489471  0.03206178     0.01500
H1279       H  0.82349629  0.29451785  0.46884801     0.14500
H1280       H  0.72875460  0.30762368  0.03923357     0.14500
C1281       C  0.78082471  0.34415653  0.06286168     0.36100
C1282       C  0.77186533  0.25850104  0.44488946     0.36000
N1283       N  0.78301328  0.35933277  0.08763223    -0.44200
N1284       N  0.77050817  0.24134005  0.42082113    -0.44200
C1285       C  0.97996454  0.36844362  0.10607272    -0.00600
C1286       C  0.97061913  0.36489949  0.13807460    -0.12500
C1287       C  0.49339200  0.36131206  0.16272372     0.01600
C1288       C  0.52682834  0.36175824  0.15596407    -0.00700
C1289       C  0.53615362  0.36661456  0.12411081    -0.12500
C1290       C  0.51348366  0.36966923  0.09944989     0.01500
H1291       H  0.94523209  0.36345508  0.14396147     0.14500
H1292       H  0.56155995  0.36706961  0.11814530     0.14500
C1293       C  0.52583650  0.37218526  0.06755867     0.36100
C1294       C  0.98144992  0.35478040  0.19440779     0.36000
N1295       N  0.53594129  0.37395701  0.04206973    -0.44200
N1296       N  0.97174191  0.34931703  0.21973515    -0.44200
C1297       C  0.87349438  0.26087225  0.12289466    -0.00600
C1298       C  0.87037334  0.21744534  0.12697709    -0.12500
C1299       C  0.86043717  0.20082917  0.15627178     0.01600
C1300       C  0.85378811  0.22799584  0.18167827    -0.00700
C1301       C  0.85623384  0.27097984  0.17729898    -0.12500
C1302       C  0.86622631  0.28761244  0.14871467     0.01500
H1303       H  0.87553462  0.19664160  0.10739047     0.14500
H1304       H  0.85127278  0.29189080  0.19695775     0.14500
C1305       C  0.86992791  0.33243133  0.14758868     0.36100
C1306       C  0.85861507  0.15621624  0.16019757     0.36000
N1307       N  0.87267987  0.36832916  0.14711317    -0.44200
N1308       N  0.85731795  0.12044613  0.16352074    -0.44200
C1309       C  0.88309269  0.26075783  0.37089748    -0.00600
C1310       C  0.91454525  0.25381458  0.38212978    -0.12500
C1311       C  0.92477839  0.27062941  0.41096903     0.01600
C1312       C  0.90310249  0.29396537  0.42944253    -0.00700
C1313       C  0.87246281  0.30346498  0.41727492    -0.12500
C1314       C  0.86236989  0.28733732  0.38802827     0.01500
H1315       H  0.93097311  0.23436741  0.36863336     0.14500
H1316       H  0.85608269  0.32242958  0.43111390     0.14500
C1317       C  0.83008572  0.29614578  0.37716698     0.36100
C1318       C  0.95713293  0.26209172  0.42176355     0.36000
N1319       N  0.80426981  0.30312610  0.36824375    -0.44200
N1320       N  0.98319647  0.25569671  0.43021422    -0.44200
C1321       C  0.98290009  0.63329673  0.39570042    -0.00600
C1322       C  0.97545877  0.64065218  0.36367055    -0.12500
C1323       C  0.49928026  0.63901603  0.34005271     0.01600
C1324       C  0.53168152  0.62996895  0.34816003    -0.00700
C1325       C  0.53864643  0.61970898  0.37971074    -0.12500
C1326       C  0.51488691  0.62100773  0.40329304     0.01500
H1327       H  0.95116205  0.64958490  0.35707778     0.14500
H1328       H  0.56309698  0.61153142  0.38620890     0.14500
C1329       C  0.52470717  0.61062146  0.43513041     0.36100
C1330       C  0.48983704  0.64919886  0.30809327     0.36000
N1331       N  0.53269105  0.60232765  0.46061153    -0.44200
N1332       N  0.48204543  0.65714426  0.28249718    -0.44200
C1333       C  0.00573241  0.77580105  0.98891225    -0.00600
C1334       C  0.50507813  0.80190245  0.01572854    -0.12500
C1335       C  0.53371885  0.81746416  0.02869835     0.01600
C1336       C  0.56323630  0.80713908  0.01440051    -0.00700
C1337       C  0.56341663  0.78493032  0.48571304    -0.12500
C1338       C  0.53498127  0.76922168  0.47286862     0.01500
H1339       H  0.48254706  0.80718242  0.02811839     0.14500
H1340       H  0.58609614  0.77770492  0.47422415     0.14500
C1341       C  0.03652176  0.74529422  0.44388754     0.36100
C1342       C  0.53253533  0.84014153  0.05820085     0.36000
N1343       N  0.03767318  0.72626160  0.42061955    -0.44200
N1344       N  0.53164681  0.85825768  0.08188955    -0.44200
C1345       C  0.75432550  0.74498658  0.01183765    -0.00600
C1346       C  0.78230614  0.76329641  0.52347701    -0.12500
C1347       C  0.81232113  0.75181323  0.51202587     0.01600
C1348       C  0.81518328  0.71867215  0.48973880    -0.00700
C1349       C  0.78728137  0.69697282  0.48075533    -0.12500
C1350       C  0.75675522  0.71053372  0.99103758     0.01500
H1351       H  0.78048136  0.78952805  0.53969839     0.14500
H1352       H  0.78904472  0.67189467  0.46360013     0.14500
C1353       C  0.72850304  0.69162738  0.97728475     0.36100
C1354       C  0.83870159  0.77785204  0.52223809     0.36000
N1355       N  0.70590974  0.67660372  0.96601791    -0.44200
N1356       N  0.85841862  0.80059383  0.53100716    -0.44200
C1357       C  0.90587404  0.55456636  0.49415649    -0.00600
C1358       C  0.90106175  0.52411145  0.47059102    -0.12500
C1359       C  0.90143710  0.48140160  0.47786721     0.01600
C1360       C  0.90637436  0.46826370  0.00937758    -0.00700
C1361       C  0.90941561  0.49868478  0.03318578    -0.12500
C1362       C  0.90941131  0.54136538  0.02591570     0.01500
H1363       H  0.89807160  0.53357553  0.44613422     0.14500
H1364       H  0.91280162  0.48905763  0.05756482     0.14500
C1365       C  0.91305964  0.57077419  0.05159683     0.36100
C1366       C  0.89608905  0.45179042  0.45264024     0.36000
N1367       N  0.91602230  0.59432982  0.07216677    -0.44200
N1368       N  0.89165780  0.42806006  0.43244988    -0.44200
C1369       C  0.87325764  0.79128458  0.31811997    -0.00600
C1370       C  0.86004261  0.81105681  0.34486469    -0.12500
C1371       C  0.86978137  0.79942255  0.37545936     0.01600
C1372       C  0.89372894  0.76865232  0.37933442    -0.00700
C1373       C  0.90858539  0.75131555  0.35287587    -0.12500
C1374       C  0.89861596  0.76198286  0.32248306     0.01500
H1375       H  0.84063407  0.83341706  0.34199116     0.14500
H1376       H  0.92670666  0.72720144  0.35605226     0.14500
C1377       C  0.91402700  0.74017270  0.29668736     0.36100
C1378       C  0.85312758  0.81665689  0.40248107     0.36000
N1379       N  0.92650218  0.72151900  0.27669094    -0.44200
N1380       N  0.83977445  0.83012925  0.42426017    -0.44200
C1381       C  0.90911533  0.72334775  0.06933095    -0.00600
C1382       C  0.92823441  0.75185337  0.08567245    -0.12500
C1383       C  0.91759177  0.76937106  0.11401952     0.01600
C1384       C  0.88730870  0.75771566  0.12677967    -0.00700
C1385       C  0.86897356  0.72722819  0.11121933    -0.12500
C1386       C  0.87946020  0.71048341  0.08232461     0.01500
H1387       H  0.95076008  0.76224505  0.07532678     0.14500
H1388       H  0.84600420  0.71766643  0.12100477     0.14500
C1389       C  0.85919780  0.68096853  0.06589801     0.36100
C1390       C  0.93872122  0.79866705  0.12966726     0.36000
N1391       N  0.84311771  0.65720305  0.05266974    -0.44200
N1392       N  0.95587408  0.82182119  0.14220000    -0.44200
O1393       O  0.89938705  0.73540024  0.51628437    -0.82300
C1394       C  0.95815103  0.64306891  0.92053312     0.97100
O1395       O  0.96615064  0.64201438  0.94949135    -0.71400
O1396       O  0.98020018  0.71243127  0.97604937    -0.75000
Al1397     Al  0.95067392  0.66992194  0.48668089     1.49000
C1398       C  0.97707915  0.75060970  0.98181870     0.92300
O1399       O  0.91504917  0.76266937  0.93135533    -0.81200
O1400       O  0.85562016  0.67443135  0.96532314    -0.74800
Al1401     Al  0.90792121  0.74705987  0.97407098     1.90100
O1402       O  0.88459616  0.71197717  0.91265279    -0.73800
O1403       O  0.89804324  0.61150169  0.95870159    -0.73700
O1404       O  0.92999127  0.65449895  0.91254623    -0.79300
O1405       O  0.92697795  0.62305857  0.50067440    -0.77600
O1406       O  0.91789071  0.69384498  0.96666589    -1.13700
O1407       O  0.94047771  0.69440489  0.52740856    -0.72900
C1408       C  0.91657747  0.71635318  0.53596272     0.97800
C1409       C  0.89830368  0.74695037  0.90939834     0.94200
Al1410     Al  0.89381875  0.66525510  0.93947842     1.55600
O1411       O  0.94964002  0.76649931  0.98441023    -0.77500
C1412       C  0.90994474  0.59890120  0.98436989     0.98400
C1413       C  0.84608557  0.71065393  0.97326482     0.93300
O1414       O  0.86319195  0.74180108  0.96694546    -0.82800
O1415       O  0.89383488  0.28009336  0.98289166    -0.82300
C1416       C  0.95454884  0.36647421  0.58051448     0.97100
O1417       O  0.96233252  0.37032536  0.55143323    -0.71400
O1418       O  0.97087692  0.30161100  0.52000699    -0.75000
Al1419     Al  0.94389027  0.34735923  0.51271119     1.49000
C1420       C  0.96660790  0.26293173  0.52146228     0.92300
O1421       O  0.89869255  0.25948091  0.57136859    -0.81200
O1422       O  0.85100141  0.35659125  0.53441070    -0.74800
Al1423     Al  0.89729004  0.27339110  0.52697242     1.90100
O1424       O  0.87187065  0.31463671  0.58558785    -0.73800
O1425       O  0.89907143  0.41165327  0.54463859    -0.73700
O1426       O  0.92544748  0.35926684  0.58811519    -0.79300
O1427       O  0.92289122  0.39781555  0.00040915    -0.77600
O1428       O  0.91032606  0.32599666  0.53306987    -1.13700
O1429       O  0.93107461  0.32672192  0.97191949    -0.72900
C1430       C  0.90957234  0.30128413  0.96321743     0.97800
C1431       C  0.88213169  0.27880176  0.59171205     0.94200
Al1432     Al  0.88883553  0.35784786  0.56063746     1.55600
O1433       O  0.93873580  0.24804235  0.52316169    -0.77500
C1434       C  0.90925600  0.42354375  0.51829881     0.98400
C1435       C  0.83824242  0.32235215  0.52576400     0.93300
O1436       O  0.85300981  0.28791839  0.52825555    -0.82800
O1437       O  0.64475490  0.22849600  0.53043204    -0.82300
C1438       C  0.70331490  0.14908290  0.92800271     0.97100
O1439       O  0.71188734  0.14595361  0.95661786    -0.71400
O1440       O  0.72415672  0.21573232  0.98516671    -0.75000
Al1441     Al  0.69705498  0.16999586  0.49520977     1.49000
C1442       C  0.71949502  0.25348985  0.99175924     0.92300
O1443       O  0.65436397  0.26451235  0.94593167    -0.81200
O1444       O  0.60054692  0.16888658  0.97720645    -0.74800
Al1445     Al  0.65025510  0.24467791  0.98837877     1.90100
O1446       O  0.62598314  0.21266039  0.92620103    -0.73800
O1447       O  0.64565310  0.11082744  0.96657854    -0.73700
O1448       O  0.67449848  0.15928874  0.92121199    -0.79300
O1449       O  0.67584621  0.12029221  0.50795071    -0.77600
O1450       O  0.66227917  0.19308324  0.97782062    -1.13700
O1451       O  0.68815676  0.18998615  0.53715015    -0.72900
C1452       C  0.66356718  0.20833629  0.54805845     0.97800
C1453       C  0.63879402  0.24815915  0.92338062     0.94200
Al1454     Al  0.63851013  0.16505861  0.95005184     1.55600
O1455       O  0.69162881  0.26672010  0.99714905    -0.77500
C1456       C  0.65868595  0.09673700  0.99116556     0.98400
C1457       C  0.58948862  0.20340146  0.98735671     0.93300
O1458       O  0.60546144  0.23627733  0.98349268    -0.82800
O1459       O  0.64757124  0.77696873  0.98712627    -0.82300
C1460       C  0.70832802  0.86914256  0.57972606     0.97100
O1461       O  0.71455758  0.87371580  0.55019524    -0.71400
O1462       O  0.72568442  0.80747874  0.51621309    -0.75000
Al1463     Al  0.69477263  0.84938301  0.51203901     1.49000
C1464       C  0.72425867  0.76845587  0.51689607     0.92300
O1465       O  0.66339431  0.75646034  0.57212786    -0.81200
O1466       O  0.60460958  0.84684431  0.54000712    -0.74800
Al1467     Al  0.65572336  0.77008823  0.52928962     1.90100
O1468       O  0.63141780  0.80503130  0.59018791    -0.73800
O1469       O  0.64896659  0.90691427  0.54905396    -0.73700
O1470       O  0.68079860  0.85702354  0.58889978    -0.79300
O1471       O  0.66920910  0.89689124  0.00253546    -0.77600
O1472       O  0.66504144  0.82366232  0.53489385    -1.13700
O1473       O  0.67967433  0.82729612  0.97149315    -0.72900
C1474       C  0.65967555  0.79841808  0.96542170     0.97800
C1475       C  0.64561860  0.77061730  0.59357841     0.94200
Al1476     Al  0.64320521  0.85172629  0.56447291     1.55600
O1477       O  0.69792009  0.75026074  0.52086406    -0.77500
C1478       C  0.65715267  0.92093995  0.52264540     0.98400
C1479       C  0.59416649  0.81161146  0.53086421     0.93300
O1480       O  0.61049838  0.77855321  0.53485301    -0.82800
O1481       O  0.61740007  0.26817594  0.77485630    -0.82300
C1482       C  0.55258637  0.35446748  0.68054893     0.97100
O1483       O  0.54653836  0.35819014  0.71018894    -0.71400
O1484       O  0.53859273  0.29237276  0.74664568    -0.75000
Al1485     Al  0.56793629  0.33682418  0.74853004     1.49000
C1486       C  0.54201607  0.25356823  0.74566123     0.92300
O1487       O  0.60559744  0.24338844  0.68940610    -0.81200
O1488       O  0.65816834  0.34014173  0.71917696    -0.74800
Al1489     Al  0.61063482  0.25977861  0.73231848     1.90100
O1490       O  0.63292322  0.29569799  0.67077560    -0.73800
O1491       O  0.61179190  0.39660354  0.71051084    -0.73700
O1492       O  0.58059405  0.34414100  0.67110803    -0.79300
O1493       O  0.59146233  0.38598720  0.75670408    -0.77600
O1494       O  0.59864546  0.31244866  0.72568217    -1.13700
O1495       O  0.58489603  0.31838591  0.78917299    -0.72900
C1496       C  0.60593022  0.29105912  0.79601574     0.97800
C1497       C  0.62337959  0.25871335  0.66845374     0.94200
Al1498     Al  0.61891721  0.34154244  0.69553144     1.55600
O1499       O  0.56889490  0.23731313  0.73977677    -0.77500
C1500       C  0.60500501  0.40980494  0.73754773     0.98400
C1501       C  0.67075133  0.30654910  0.72916780     0.93300
O1502       O  0.65565041  0.27216182  0.72803646    -0.82800
O1503       O  0.62462001  0.72777855  0.73523071    -0.82300
C1504       C  0.55899380  0.63553460  0.82549846     0.97100
O1505       O  0.55449248  0.63087375  0.79585141    -0.71400
O1506       O  0.54488252  0.69846771  0.76419620    -0.75000
Al1507     Al  0.57526187  0.65649693  0.75953329     1.49000
C1508       C  0.54675763  0.73737786  0.76336890     0.92300
O1509       O  0.60830039  0.74904710  0.82166654    -0.81200
O1510       O  0.66503655  0.65599976  0.78995804    -0.74800
Al1511     Al  0.61561107  0.73476699  0.77807505     1.90100
O1512       O  0.63682149  0.69670136  0.83897539    -0.73800
O1513       O  0.61955731  0.59694154  0.79595436    -0.73700
O1514       O  0.58635349  0.64642945  0.83618782    -0.79300
O1515       O  0.60069623  0.60947374  0.74933218    -0.77600
O1516       O  0.60494612  0.68118359  0.78316911    -1.13700
O1517       O  0.59072501  0.67895350  0.72044135    -0.72900
C1518       C  0.61196909  0.70580074  0.71396374     0.97800
C1519       C  0.62414462  0.73179595  0.84352580     0.94200
Al1520     Al  0.62522914  0.65151357  0.81268213     1.55600
O1521       O  0.57309065  0.75559030  0.76863084    -0.77500
C1522       C  0.61277941  0.58449744  0.76867546     0.98400
C1523       C  0.67721288  0.69112142  0.78298712     0.93300
O1524       O  0.66080341  0.72454754  0.78452775    -0.82800
O1525       O  0.86720113  0.23079063  0.73474945    -0.82300
C1526       C  0.80136922  0.14385556  0.82878629     0.97100
O1527       O  0.79494507  0.14046111  0.79948629    -0.71400
O1528       O  0.78616702  0.21227663  0.77306442    -0.75000
Al1529     Al  0.81351370  0.16756762  0.76279962     1.49000
C1530       C  0.79124107  0.25068034  0.77066472     0.92300
O1531       O  0.85623076  0.25519833  0.82102147    -0.81200
O1532       O  0.90675354  0.15797734  0.78847269    -0.74800
Al1533     Al  0.86076387  0.23982179  0.77765516     1.90100
O1534       O  0.88183227  0.20054183  0.83906351    -0.73800
O1535       O  0.85884004  0.10319346  0.79342668    -0.73700
O1536       O  0.82970159  0.15303123  0.83766756    -0.79300
O1537       O  0.83569397  0.11940461  0.74893968    -0.77600
O1538       O  0.84704600  0.18793831  0.78402047    -1.13700
O1539       O  0.82545596  0.19179396  0.72257245    -0.72900
C1540       C  0.84886958  0.21465248  0.71452733     0.97800
C1541       C  0.87266591  0.23779325  0.84236618     0.94200
Al1542     Al  0.86746079  0.15617875  0.81228370     1.55600
O1543       O  0.81949515  0.26476038  0.76990874    -0.77500
C1544       C  0.84910564  0.09289996  0.76635249     0.98400
C1545       C  0.92033995  0.19197652  0.78116662     0.93300
O1546       O  0.90533665  0.22630801  0.78238998    -0.82800
O1547       O  0.85975052  0.76805836  0.76684859    -0.82300
C1548       C  0.80645652  0.86366610  0.67760593     0.97100
O1549       O  0.79608463  0.84855464  0.70375263    -0.71400
O1550       O  0.79729517  0.79262466  0.75189954    -0.75000
Al1551     Al  0.82037449  0.84112206  0.74164919     1.49000
C1552       C  0.79497490  0.75765334  0.73920876     0.92300
O1553       O  0.86184934  0.75468135  0.67718893    -0.81200
O1554       O  0.91602050  0.83666605  0.71321252    -0.74800
Al1555     Al  0.85968759  0.76496139  0.72149437     1.90100
O1556       O  0.88145200  0.81431821  0.66156329    -0.73800
O1557       O  0.87818364  0.89960467  0.72219581    -0.73700
O1558       O  0.83648113  0.87139244  0.67317011    -0.79300
O1559       O  0.83004411  0.89829711  0.74061875    -0.77600
O1560       O  0.85222887  0.81948307  0.71888020    -1.13700
O1561       O  0.84551540  0.83319863  0.77937659    -0.72900
C1562       C  0.85881210  0.79834366  0.78644833     0.97800
C1563       C  0.87555810  0.77656275  0.65652549     0.94200
Al1564     Al  0.87571518  0.85275340  0.69457712     1.55600
O1565       O  0.81545429  0.74700948  0.71894332    -0.77500
C1566       C  0.85512546  0.91795274  0.73492411     0.98400
C1567       C  0.92463516  0.80070844  0.72201784     0.93300
O1568       O  0.90470172  0.77126882  0.72397536    -0.82800
C1569       C  0.85217285  0.04901004  0.75577278    -0.00600
C1570       C  0.87860871  0.02499734  0.76606000    -0.12500
C1571       C  0.88094340  0.98242800  0.75854383     0.01600
C1572       C  0.85596266  0.96309296  0.74142742    -0.00700
C1573       C  0.82990148  0.98713008  0.73075380    -0.12500
C1574       C  0.82801853  0.02976430  0.73726224     0.01500
H1575       H  0.89737720  0.03947064  0.78013106     0.14500
H1576       H  0.81079469  0.97238462  0.71725677     0.14500
C1577       C  0.80028511  0.05238452  0.72568960     0.36100
C1578       C  0.90838769  0.95894754  0.76968641     0.36000
N1579       N  0.77815415  0.07053713  0.71626507    -0.44200
N1580       N  0.93042888  0.94010879  0.77851774    -0.44200
C1581       C  0.76880327  0.72998055  0.75034631    -0.00600
C1582       C  0.76154305  0.73128039  0.78285874    -0.12500
C1583       C  0.73303655  0.71425400  0.79458890     0.01600
C1584       C  0.71120129  0.69514828  0.77372546    -0.00700
C1585       C  0.71966350  0.69024365  0.74170067    -0.12500
C1586       C  0.74846595  0.70732927  0.72987670     0.01500
H1587       H  0.77738259  0.74785445  0.79895904     0.14500
H1588       H  0.70269247  0.67587680  0.72552792     0.14500
C1589       C  0.75519892  0.70427482  0.69646529     0.36100
C1590       C  0.72552335  0.71942193  0.82776963     0.36000
N1591       N  0.76073182  0.70166114  0.66969502    -0.44200
N1592       N  0.71945819  0.72351981  0.85432718    -0.44200
C1593       C  0.51801368  0.75972172  0.75159894    -0.00600
C1594       C  0.00254627  0.74138574  0.72560740    -0.12500
C1595       C  0.97312988  0.75608564  0.71466397     0.01600
C1596       C  0.95857016  0.79086355  0.72926145    -0.00700
C1597       C  0.97481237  0.81119352  0.75417766    -0.12500
C1598       C  0.50449940  0.79564230  0.76555492     0.01500
H1599       H  0.01299107  0.71405646  0.71444581     0.14500
H1600       H  0.96342133  0.83738292  0.76595655     0.14500
C1601       C  0.51930817  0.81480013  0.79279477     0.36100
C1602       C  0.95772549  0.73303787  0.68946158     0.36000
N1603       N  0.53126382  0.82990339  0.81473122    -0.44200
N1604       N  0.94581369  0.71362513  0.66956102    -0.44200
C1605       C  0.76328656  0.27816234  0.76563426    -0.00600
C1606       C  0.76114976  0.30020569  0.73694588    -0.12500
C1607       C  0.73114810  0.31390021  0.72553589     0.01600
C1608       C  0.70316494  0.30579050  0.74326827    -0.00700
C1609       C  0.70606134  0.28860212  0.77362985    -0.12500
C1610       C  0.73576892  0.27453667  0.78486983     0.01500
H1611       H  0.78228328  0.30298286  0.72200896     0.14500
H1612       H  0.68462704  0.28371340  0.78773240     0.14500
C1613       C  0.73720364  0.25450493  0.81543889     0.36100
C1614       C  0.72920547  0.33213725  0.69439067     0.36000
N1615       N  0.73834665  0.23876703  0.84004206    -0.44200
N1616       N  0.72756227  0.34678314  0.66942365    -0.44200
C1617       C  0.51447148  0.22752701  0.75487339    -0.00600
C1618       C  0.99397743  0.21105304  0.73170081    -0.12500
C1619       C  0.96396792  0.19435635  0.74023230     0.01600
C1620       C  0.95449618  0.19380515  0.77231788    -0.00700
C1621       C  0.97608827  0.20738113  0.79552933    -0.12500
C1622       C  0.50583332  0.22434503  0.78709850     0.01500
H1623       H  0.00046991  0.21368270  0.70692046     0.14500
H1624       H  0.96858762  0.20792060  0.82013305     0.14500
C1625       C  0.52594331  0.24115979  0.81190244     0.36100
C1626       C  0.94239335  0.18074143  0.71557200     0.36000
N1627       N  0.54162655  0.25458273  0.83212023    -0.44200
N1628       N  0.92533180  0.16965053  0.69563689    -0.44200
C1629       C  0.61172601  0.45383308  0.74618984    -0.00600
C1630       C  0.61580855  0.48329007  0.72189091    -0.12500
C1631       C  0.61824436  0.52591757  0.72866702     0.01600
C1632       C  0.61648781  0.53984932  0.76034461    -0.00700
C1633       C  0.61515562  0.51017657  0.78473061    -0.12500
C1634       C  0.61286258  0.46756639  0.77800577     0.01500
H1635       H  0.61599530  0.47322525  0.69737478     0.14500
H1636       H  0.61451330  0.52033606  0.80922460     0.14500
C1637       C  0.61171411  0.43888519  0.80431533     0.36100
C1638       C  0.62251312  0.55462522  0.70268965     0.36000
N1639       N  0.61090155  0.41597423  0.82543559    -0.44200
N1640       N  0.62603828  0.57782453  0.68202495    -0.44200
C1641       C  0.73390490  0.87566420  0.60422134    -0.00600
C1642       C  0.76651041  0.87096434  0.59585585    -0.12500
C1643       C  0.79083042  0.86898443  0.61906846     0.01600
C1644       C  0.78273998  0.87155917  0.65162831    -0.00700
C1645       C  0.75043667  0.87887313  0.65976492    -0.12500
C1646       C  0.72626420  0.88133158  0.63667199     0.01500
H1647       H  0.77293992  0.86663039  0.57119453     0.14500
H1648       H  0.74382869  0.88191320  0.68449591     0.14500
C1649       C  0.69371747  0.88898011  0.64732775     0.36100
C1650       C  0.82350628  0.86179272  0.60867035     0.36000
N1651       N  0.66764408  0.89501184  0.65589424    -0.44200
N1652       N  0.84968019  0.85618911  0.60022899    -0.44200
C1653       C  0.65083881  0.78496716  0.93302971    -0.00600
C1654       C  0.64410109  0.74233255  0.92972616    -0.12500
C1655       C  0.63306420  0.72567520  0.90159945     0.01600
C1656       C  0.62954666  0.75140924  0.87474505    -0.00700
C1657       C  0.63568232  0.79448690  0.87769350    -0.12500
C1658       C  0.64620767  0.81149687  0.90679755     0.01500
H1659       H  0.64731104  0.72131664  0.94960831     0.14500
H1660       H  0.63314032  0.81452025  0.85719100     0.14500
C1661       C  0.65127027  0.85582912  0.90939985     0.36100
C1662       C  0.62576100  0.68158542  0.90145176     0.36000
N1663       N  0.65520984  0.89142984  0.91157569    -0.44200
N1664       N  0.62039009  0.64620660  0.90188627    -0.46600
C1665       C  0.63983510  0.74652722  0.62220301    -0.00600
C1666       C  0.60952512  0.72821939  0.62616848    -0.12500
C1667       C  0.60055583  0.71132674  0.65531859     0.01600
C1668       C  0.62215963  0.71357158  0.68109493    -0.00700
C1669       C  0.65340179  0.72933653  0.67618109    -0.12500
C1670       C  0.66236499  0.74579437  0.64696041     0.01500
H1671       H  0.59233296  0.72881636  0.60680210     0.14500
H1672       H  0.67035676  0.73079160  0.69569612     0.14500
C1673       C  0.69384451  0.76438924  0.64360139     0.36100
C1674       C  0.56836108  0.69494420  0.65850369     0.36000
N1675       N  0.71907771  0.77924997  0.64097322    -0.44200
N1676       N  0.54254310  0.68172912  0.66071509    -0.44200
C1677       C  0.65436164  0.96607339  0.51591658    -0.00600
C1678       C  0.64454854  0.97907768  0.98578944    -0.12500
C1679       C  0.64413487  0.02143597  0.97766921     0.01600
C1680       C  0.65488032  0.05188598  0.99970923    -0.00700
C1681       C  0.66403629  0.03866146  0.53014443    -0.12500
C1682       C  0.66351678  0.99638865  0.53847857     0.01500
H1683       H  0.63727292  0.95595510  0.96845004     0.14500
H1684       H  0.67209857  0.06135147  0.54745917     0.14500
C1685       C  0.67411856  0.98484048  0.56985782     0.36100
C1686       C  0.63319032  0.03216975  0.94625872     0.36000
N1687       N  0.68250245  0.97548247  0.59499892    -0.44200
N1688       N  0.62417808  0.04074163  0.92116370    -0.44200
C1689       C  0.63509055  0.23403011  0.64160721    -0.00600
C1690       C  0.66760338  0.23880667  0.63315005    -0.12500
C1691       C  0.67865449  0.22577924  0.60360184     0.01600
C1692       C  0.65670178  0.20840837  0.58201980    -0.00700
C1693       C  0.62521418  0.19894393  0.59191333    -0.12500
C1694       C  0.61430515  0.21127116  0.62182422     0.01500
H1695       H  0.68390294  0.25524250  0.64889617     0.14500
H1696       H  0.60850655  0.18470235  0.57538985     0.14500
C1697       C  0.58117894  0.20365350  0.63042964     0.36100
C1698       C  0.71161317  0.23441155  0.59490082     0.36000
N1699       N  0.55470527  0.19735813  0.63751337    -0.44200
N1700       N  0.73807077  0.24116565  0.58802407    -0.44200
C1701       C  0.61772709  0.28411458  0.82897718    -0.00600
C1702       C  0.60758833  0.31032610  0.85388760    -0.12500
C1703       C  0.61652256  0.30184866  0.88540905     0.01600
C1704       C  0.63649261  0.26742006  0.89204240    -0.00700
C1705       C  0.64837339  0.24324638  0.86725463    -0.12500
C1706       C  0.63878950  0.25025135  0.83625987     0.01500
H1707       H  0.59156440  0.33623452  0.84898806     0.14500
H1708       H  0.66334908  0.21631581  0.87253920     0.14500
C1709       C  0.64939004  0.21950469  0.81341937     0.36100
C1710       C  0.60336593  0.32697185  0.91063533     0.36000
N1711       N  0.65787667  0.19461803  0.79538529    -0.44200
N1712       N  0.59285389  0.34706925  0.93093058    -0.44200
C1713       C  0.72820832  0.14222246  0.90262757    -0.00600
C1714       C  0.71892952  0.14058547  0.87059435    -0.12500
C1715       C  0.74195391  0.13858203  0.84607804     0.01600
C1716       C  0.77540486  0.13880687  0.85324608    -0.00700
C1717       C  0.78449325  0.13836599  0.88523580    -0.12500
C1718       C  0.76171935  0.13997339  0.90964522     0.01500
H1719       H  0.69355852  0.14185454  0.86453626     0.14500
H1720       H  0.80985479  0.13811547  0.89144381     0.14500
C1721       C  0.77426244  0.14156999  0.94154764     0.36100
C1722       C  0.73030810  0.13811001  0.81387929     0.36000
N1723       N  0.78460994  0.14308842  0.96696831    -0.44200
N1724       N  0.72098857  0.13768644  0.78805788    -0.44200
C1725       C  0.55764633  0.20795163  0.00312801    -0.00600
C1726       C  0.53017093  0.18853515  0.99039043    -0.12500
C1727       C  0.99903693  0.20258355  0.49866826     0.01600
C1728       C  0.99549387  0.23602525  0.52023876    -0.00700
C1729       C  0.52254894  0.25082834  0.03611789    -0.12500
C1730       C  0.55330675  0.23799911  0.02758165     0.01500
H1731       H  0.53296771  0.16531656  0.97191398     0.14500
H1732       H  0.51977705  0.27578636  0.05332819     0.14500
C1733       C  0.57930499  0.26012179  0.04279713     0.36100
C1734       C  0.97151926  0.18522907  0.48250832     0.36000
N1735       N  0.59851771  0.27986427  0.05580925    -0.44200
N1736       N  0.94939243  0.17147237  0.46952984    -0.44200
C1737       C  0.80557229  0.31981335  0.51267605    -0.00600
C1738       C  0.80242601  0.29927293  0.98348152    -0.12500
C1739       C  0.77351978  0.28036882  0.97475021     0.01600
C1740       C  0.74716167  0.28171669  0.49561470    -0.00700
C1741       C  0.74911169  0.30625920  0.52317766    -0.12500
C1742       C  0.77830162  0.32489526  0.53206143     0.01500
H1743       H  0.82349622  0.29451761  0.96884832     0.14500
H1744       H  0.72875477  0.30762409  0.53923336     0.14500
C1745       C  0.78082481  0.34415733  0.56286125     0.36100
C1746       C  0.77186530  0.25850092  0.94488962     0.36000
N1747       N  0.78301338  0.35933363  0.58763177    -0.44200
N1748       N  0.77050825  0.24134003  0.92082125    -0.44200
C1749       C  0.97996462  0.36844374  0.60607263    -0.00600
C1750       C  0.97061920  0.36489984  0.63807453    -0.12500
C1751       C  0.49339209  0.36131199  0.66272367     0.01600
C1752       C  0.52682844  0.36175781  0.65596405    -0.00700
C1753       C  0.53615377  0.36661372  0.62411077    -0.12500
C1754       C  0.51348384  0.36966855  0.59944983     0.01500
H1755       H  0.94523217  0.36345549  0.64396139     0.14500
H1756       H  0.56156011  0.36706833  0.61814528     0.14500
C1757       C  0.52583668  0.37218386  0.56755860     0.36100
C1758       C  0.98145002  0.35478127  0.69440779     0.36000
N1759       N  0.53594142  0.37395484  0.54206961    -0.44200
N1760       N  0.97174205  0.34931823  0.71973519    -0.44200
C1761       C  0.87349412  0.26087219  0.62289436    -0.00600
C1762       C  0.87037318  0.21744528  0.62697680    -0.12500
C1763       C  0.86043705  0.20082905  0.65627148     0.01600
C1764       C  0.85378805  0.22799573  0.68167799    -0.00700
C1765       C  0.85623363  0.27097973  0.67729870    -0.12500
C1766       C  0.86622593  0.28761238  0.64871436     0.01500
H1767       H  0.87553455  0.19664151  0.60739016     0.14500
H1768       H  0.85127258  0.29189069  0.69695749     0.14500
C1769       C  0.86992735  0.33243128  0.64758837     0.36100
C1770       C  0.85861496  0.15621613  0.66019725     0.36000
N1771       N  0.87267924  0.36832912  0.64711284    -0.44200
N1772       N  0.85731783  0.12044599  0.66352041    -0.44200
C1773       C  0.88309301  0.26075820  0.87089729    -0.00600
C1774       C  0.91454551  0.25381484  0.88212975    -0.12500
C1775       C  0.92477845  0.27062937  0.91096918     0.01600
C1776       C  0.90310246  0.29396518  0.92944266    -0.00700
C1777       C  0.87246281  0.30346478  0.91727497    -0.12500
C1778       C  0.86237009  0.28733746  0.88802814     0.01500
H1779       H  0.93097343  0.23436780  0.86863332     0.14500
H1780       H  0.85608259  0.32242913  0.93111401     0.14500
C1781       C  0.83008601  0.29614603  0.87716666     0.36100
C1782       C  0.95713296  0.26209169  0.92176384     0.36000
N1783       N  0.80427019  0.30312637  0.86824321    -0.44200
N1784       N  0.98319649  0.25569692  0.93021461    -0.44200
C1785       C  0.98289990  0.63329675  0.89570044    -0.00600
C1786       C  0.97545865  0.64065241  0.86367057    -0.12500
C1787       C  0.49928026  0.63901592  0.84005271     0.01600
C1788       C  0.53168153  0.62996892  0.84815999    -0.00700
C1789       C  0.53864652  0.61970896  0.87971069    -0.12500
C1790       C  0.51488705  0.62100778  0.90329304     0.01500
H1791       H  0.95116197  0.64958523  0.85707780     0.14500
H1792       H  0.56309707  0.61153144  0.88620881     0.14500
C1793       C  0.52470741  0.61062166  0.93513044     0.36100
C1794       C  0.48983697  0.64919865  0.80809326     0.36000
N1795       N  0.53269139  0.60232796  0.96061154    -0.44200
N1796       N  0.48204532  0.65714410  0.78249721    -0.44200
C1797       C  0.00573250  0.77580138  0.48891239    -0.00600
C1798       C  0.50507822  0.80190216  0.51572823    -0.12500
C1799       C  0.53371895  0.81746388  0.52869802     0.01600
C1800       C  0.56323637  0.80713875  0.51440015    -0.00700
C1801       C  0.56341656  0.78493068  0.98571341    -0.12500
C1802       C  0.53498124  0.76922201  0.97286898     0.01500
H1803       H  0.48254716  0.80718202  0.52811814     0.14500
H1804       H  0.58609610  0.77770528  0.97422450     0.14500
C1805       C  0.03652159  0.74529354  0.94388745     0.36100
C1806       C  0.53253550  0.84014097  0.55820060     0.36000
N1807       N  0.03767284  0.72626069  0.92061955    -0.44200
N1808       N  0.53164713  0.85825677  0.58188950    -0.44200
C1809       C  0.75432582  0.74498694  0.51183743    -0.00600
C1810       C  0.78230583  0.76329584  0.02347738    -0.12500
C1811       C  0.81232084  0.75181262  0.01202629     0.01600
C1812       C  0.81518300  0.71867178  0.98973902    -0.00700
C1813       C  0.78728106  0.69697258  0.98075540    -0.12500
C1814       C  0.75675552  0.71053398  0.49103745     0.01500
H1815       H  0.78048107  0.78952740  0.03969887     0.14500
H1816       H  0.78904438  0.67189457  0.96360010     0.14500
C1817       C  0.72850336  0.69162761  0.47728464     0.36100
C1818       C  0.83870135  0.77785109  0.02223884     0.36000
N1819       N  0.70591002  0.67660400  0.46601775    -0.44200
N1820       N  0.85841842  0.80059263  0.03100818    -0.44200
C1821       C  0.90587374  0.55456615  0.99415645    -0.00600
C1822       C  0.90106174  0.52411121  0.97059092    -0.12500
C1823       C  0.90143703  0.48140135  0.97786715     0.01600
C1824       C  0.90637466  0.46826388  0.50937761    -0.00700
C1825       C  0.90941619  0.49868497  0.53318580    -0.12500
C1826       C  0.90941186  0.54136558  0.52591573     0.01500
H1827       H  0.89807187  0.53357523  0.94613408     0.14500
H1828       H  0.91280237  0.48905779  0.55756483     0.14500
C1829       C  0.91306038  0.57077443  0.55159682     0.36100
C1830       C  0.89608919  0.45179016  0.95264015     0.36000
N1831       N  0.91602332  0.59433010  0.57216669    -0.44200
N1832       N  0.89165812  0.42805986  0.93244971    -0.44200
C1833       C  0.87325717  0.79128437  0.81811991    -0.00600
C1834       C  0.86004281  0.81105733  0.84486464    -0.12500
C1835       C  0.86978166  0.79942316  0.87545932     0.01600
C1836       C  0.89372860  0.76865208  0.87933435    -0.00700
C1837       C  0.90858444  0.75131451  0.85287576    -0.12500
C1838       C  0.89861502  0.76198190  0.82248296     0.01500
H1839       H  0.84063467  0.83341826  0.84199115     0.14500
H1840       H  0.92670524  0.72719984  0.85605213     0.14500
C1841       C  0.91402561  0.74017115  0.79668727     0.36100
C1842       C  0.85312860  0.81665847  0.90248112     0.36000
N1843       N  0.92650041  0.72151705  0.77669082    -0.44200
N1844       N  0.83977605  0.83013163  0.92426028    -0.44200
C1845       C  0.90911532  0.72334795  0.56933084    -0.00600
C1846       C  0.92823444  0.75185348  0.58567241    -0.12500
C1847       C  0.91759183  0.76937104  0.61401956     0.01600
C1848       C  0.88730870  0.75771573  0.62677962    -0.00700
C1849       C  0.86897350  0.72722846  0.61121915    -0.12500
C1850       C  0.87946011  0.71048374  0.58232443     0.01500
H1851       H  0.95076017  0.76224509  0.57532676     0.14500
H1852       H  0.84600408  0.71766676  0.62100455     0.14500
C1853       C  0.85919767  0.68096892  0.56589778     0.36100
C1854       C  0.93872135  0.79866675  0.62966752     0.36000
N1855       N  0.84311764  0.65720344  0.55266949    -0.44200
N1856       N  0.95587420  0.82182078  0.64220041    -0.44200
loop_ 
_geom_bond_atom_site_label_1 
_geom_bond_atom_site_label_2 
_geom_bond_distance 
_geom_bond_site_symmetry_2 
_ccdc_geom_bond_type 
O1           C16   1.254       .  A
O1         Al473   1.857   1_554  S
C2           O12   1.270       .  A
C2            O3   1.268       .  A
C2          C393   1.501       .  S
O3         Al469   1.918       .  S
O4            C6   1.255       .  A
O4         Al469   1.890       .  S
Al5          O13   1.893   1_556  S
Al5          O15   1.937   1_556  S
Al5         O467   1.918       .  S
Al5         O468   1.890       .  S
Al5         O478   1.775       .  S
C6           O19   1.252       .  A
C6          C869   1.470       .  S
O7           C17   1.264       .  A
O7           Al9   1.897       .  S
O8           C21   1.271       .  A
O8          Al18   1.948       .  S
Al9          O22   1.889       .  S
Al9          O19   1.892       .  S
Al9         O465   1.857       .  S
Al9          O14   1.783       .  S
O10          C17   1.266       .  A
O10         Al18   1.918       .  S
O11          C20   1.258       .  A
O11         Al18   1.914       .  S
O12         Al18   1.915       .  S
O13         C484   1.255   1_554  A
O14         Al18   1.777       .  S
O14        Al469   1.775       .  S
O15          C16   1.268       .  A
C16         C453   1.461       .  S
C17         C444   1.461       .  S
C20         O477   1.255       .  A
C20         C429   1.491       .  S
C21          O22   1.256       .  A
C21         C420   1.482       .  S
O23          C38   1.258       .  A
O23        Al495   1.880       .  S
C24          O34   1.272       .  A
C24          O25   1.277       .  A
C24         C357   1.511       .  S
O25         Al27   1.950       .  S
O26          C28   1.255       .  A
O26         Al27   1.870       .  S
Al27        O499   1.909       .  S
Al27        O501   1.921   1_554  S
Al27         O36   1.777       .  S
C28          O41   1.255       .  A
C28         C336   1.477       .  S
O29          C39   1.262       .  A
O29         Al31   1.929       .  S
O30          C43   1.273       .  A
O30         Al40   1.922       .  S
Al31         O44   1.896       .  S
Al31         O41   1.908       .  S
Al31        O487   1.880   1_554  S
Al31         O36   1.791       .  S
O32          C39   1.252       .  A
O32         Al40   1.881       .  S
O33          C42   1.251       .  A
O33         Al40   1.903       .  S
O34         Al40   1.912       .  S
O35         C506   1.253       .  A
O35        Al491   1.909       .  S
O36         Al40   1.786       .  S
O37          C38   1.265       .  A
O37        Al491   1.921       .  S
C38         C384   1.471       .  S
C39         C369   1.483       .  S
C42         O499   1.253       .  A
C42         C432   1.488       .  S
C43          O44   1.267       .  A
C43         C345   1.467       .  S
O45          C60   1.257       .  A
O45        Al517   1.866   1_554  S
C46          O56   1.272       .  A
C46          O47   1.264       .  A
C46         C321   1.505       .  S
O47        Al513   1.905       .  S
O48          C50   1.257       .  A
O48        Al513   1.899       .  S
Al49         O57   1.901   1_556  S
Al49         O59   1.920   1_556  S
Al49        O511   1.905       .  S
Al49        O512   1.899       .  S
Al49        O522   1.780       .  S
C50          O63   1.252       .  A
C50         C812   1.473       .  S
O51          C61   1.265       .  A
O51         Al53   1.912       .  S
O52          C65   1.272       .  A
O52         Al62   1.954       .  S
Al53         O66   1.891       .  S
Al53         O63   1.895       .  S
Al53        O509   1.866       .  S
Al53         O58   1.784       .  S
O54          C61   1.263       .  A
O54         Al62   1.902       .  S
O55          C64   1.255       .  A
O55         Al62   1.898       .  S
O56         Al62   1.937       .  S
O57         C528   1.257   1_554  A
O58         Al62   1.777       .  S
O58        Al513   1.780       .  S
O59          C60   1.264       .  A
C60         C300   1.463       .  S
C61         C312   1.465       .  S
C64         O521   1.257       .  A
C64         C288   1.492       .  S
C65          O66   1.258       .  A
C65         C333   1.488       .  S
O67          C82   1.253       .  A
O67        Al539   1.827       .  S
C68          O78   1.269       .  A
C68          O69   1.283       .  A
C68         C249   1.497       .  S
O69         Al71   1.970       .  S
O70          C72   1.253       .  A
O70         Al71   1.865       .  S
Al71        O543   1.898       .  S
Al71        O545   1.956   1_554  S
Al71         O80   1.773       .  S
C72          O85   1.252       .  A
C72         C417   1.472       .  S
O73          C83   1.253       .  A
O73         Al75   1.889       .  S
O74          C87   1.271       .  A
O74         Al84   1.913       .  S
Al75         O88   1.911       .  S
Al75         O85   1.896       .  S
Al75        O531   1.827   1_554  S
Al75         O80   1.778       .  S
O76          C83   1.259       .  A
O76         Al84   1.916       .  S
O77          C86   1.251       .  A
O77         Al84   1.902       .  S
O78         Al84   1.878       .  S
O79         C550   1.251       .  A
O79        Al535   1.898       .  S
O80         Al84   1.786       .  S
O81          C82   1.271       .  A
O81        Al535   1.956       .  S
C82         C261   1.481       .  S
C83         C273   1.456       .  S
C86         O543   1.251       .  A
C86         C285   1.480       .  S
C87          O88   1.269       .  A
C87         C408   1.467       .  S
O89         C104   1.250       .  A
O89         Al97   1.838       .  S
C90         O100   1.273       .  A
C90          O91   1.283       .  A
C90         C360   1.508       .  S
O91         Al93   1.970       .  S
O92          C94   1.253       .  A
O92         Al93   1.879       .  S
Al93        O101   1.888       .  S
Al93        O103   1.948       .  S
Al93        O102   1.779       .  S
C94         O107   1.256       .  A
C94         C225   1.470       .  S
O95         C105   1.254       .  A
O95         Al97   1.899       .  S
O96         C109   1.269       .  A
O96        Al106   1.911       .  S
Al97        O110   1.920       .  S
Al97        O107   1.904       .  S
Al97        O102   1.783       .  S
O98         C105   1.255       .  A
O98        Al106   1.894       .  S
O99         C108   1.250       .  A
O99        Al106   1.898       .  S
O100       Al106   1.897       .  S
O101        C108   1.248       .  A
O102       Al106   1.791       .  S
O103        C104   1.269       .  A
C104        C309   1.493       .  S
C105        C297   1.465       .  S
C108        C237   1.485       .  S
C109        O110   1.271       .  A
C109        C216   1.471       .  S
O111        C126   1.257       .  A
O111       Al119   1.862       .  S
C112        O122   1.271       .  A
C112        O113   1.275       .  A
C112        C396   1.496       .  S
O113       Al115   1.945       .  S
O114        C116   1.251       .  A
O114       Al115   1.853       .  S
Al115       O123   1.889       .  S
Al115       O125   1.914       .  S
Al115       O124   1.773       .  S
C116        O129   1.260       .  A
C116        C201   1.477       .  S
O117        C127   1.261       .  A
O117       Al119   1.921       .  S
O118        C131   1.271       .  A
O118       Al128   1.917       .  S
Al119       O132   1.923       .  S
Al119       O129   1.928       .  S
Al119       O124   1.789       .  S
O120        C127   1.256       .  A
O120       Al128   1.888       .  S
O121        C130   1.251       .  A
O121       Al128   1.902       .  S
O122       Al128   1.903       .  S
O123        C130   1.249       .  A
O124       Al128   1.780       .  S
O125        C126   1.264       .  A
C126        C276   1.474       .  S
C127        C264   1.478       .  S
C130        C240   1.482       .  S
C131        O132   1.271       .  A
C131        C192   1.470       .  S
O133        C148   1.256       .  A
O133       Al141   1.855       .  S
C134        O144   1.269       .  A
C134        O135   1.271       .  A
C134        C324   1.503       .  S
O135       Al137   1.939       .  S
O136        C138   1.254       .  A
O136       Al137   1.878       .  S
Al137       O145   1.889       .  S
Al137       O147   1.935       .  S
Al137       O146   1.780       .  S
C138        O151   1.258       .  A
C138        C213   1.471       .  S
O139        C149   1.261       .  A
O139       Al141   1.906       .  S
O140        C153   1.267       .  A
O140       Al150   1.918       .  S
Al141       O154   1.910       .  S
Al141       O151   1.917       .  S
Al141       O146   1.781       .  S
O142        C149   1.261       .  A
O142       Al150   1.913       .  S
O143        C152   1.257       .  A
O143       Al150   1.910       .  S
O144       Al150   1.903       .  S
O145        C152   1.254       .  A
O146       Al150   1.783       .  S
O147        C148   1.266       .  A
C148        C372   1.467       .  S
C149        C381   1.477       .  S
C152        C177   1.482       .  S
C153        O154   1.265       .  A
C153        C228   1.468       .  S
O155        C170   1.276       .  A
O155       Al163   1.919       .  S
C156        O166   1.285       .  A
C156        O157   1.282       .  A
C156        C252   1.495       .  S
O157       Al159   1.907       .  S
O158        C160   1.246       .  A
O158       Al159   1.880       .  S
Al159       O167   1.879       .  S
Al159       O169   1.922       .  S
Al159       O168   1.775       .  S
C160        O173   1.254       .  A
C160        C189   1.482       .  S
O161        C171   1.258       .  A
O161       Al163   1.902       .  S
O162        C175   1.263       .  A
O162       Al172   1.919       .  S
Al163       O176   1.883       .  S
Al163       O173   1.928       .  S
Al163       O168   1.779       .  S
O164        C171   1.254       .  A
O164       Al172   1.875       .  S
O165        C174   1.245       .  A
O165       Al172   1.904       .  S
O166       Al172   1.955       .  S
O167        C174   1.242       .  A
O168       Al172   1.775       .  S
O169        C170   1.281       .  A
C170        C441   1.483       .  S
C171        C456   1.477       .  S
C174        C180   1.474       .  S
C175        O176   1.260       .  A
C175        C204   1.475       .  S
C177        C178   1.408       .  A
C177        C182   1.414       .  A
C178        C179   1.405   1_545  A
C178        H183   1.084       .  S
C179        C180   1.408       .  A
C179        C186   1.443       .  S
C180        C181   1.402       .  A
C181        C182   1.396   1_565  A
C181        H184   1.085       .  S
C182        C185   1.445       .  S
C185        N187   1.157       .  T
C186        N188   1.157       .  T
C189        C190   1.407       .  A
C189        C194   1.410       .  A
C190        C191   1.396       .  A
C190        H195   1.085       .  S
C191        C192   1.405       .  A
C191        C198   1.446       .  S
C192        C193   1.407       .  A
C193        C194   1.408       .  A
C193        H196   1.084       .  S
C194        C197   1.442       .  S
C197        N199   1.157       .  T
C198        N200   1.157       .  T
C201        C206   1.409       .  A
C201       C1130   1.401       .  A
C202        C203   1.387       .  A
C202       C1129   1.401       .  A
C202        H207   1.085       .  S
C203        C204   1.409       .  A
C203        C210   1.445       .  S
C204        C205   1.410       .  A
C205       C1134   1.413       .  A
C205        H208   1.084       .  S
C206       C1133   1.413   1_455  A
C206        C209   1.442       .  S
C209        N211   1.157       .  T
C210        N212   1.157       .  T
C213        C214   1.407       .  A
C213        C218   1.407       .  A
C214        C215   1.405       .  A
C214        H219   1.085       .  S
C215        C216   1.408       .  A
C215        C222   1.443       .  S
C216        C217   1.402       .  A
C217        C218   1.396       .  A
C217        H220   1.083       .  S
C218        C221   1.444       .  S
C221        N223   1.157       .  T
C222        N224   1.157       .  T
C225        C230   1.412       .  A
C225       C1154   1.400   1_455  A
C226        C227   1.404       .  A
C226       C1153   1.400       .  A
C226        H231   1.085       .  S
C227        C228   1.412       .  A
C227        C234   1.441       .  S
C228        C229   1.398       .  A
C229       C1158   1.397       .  A
C229        H232   1.085       .  S
C230       C1157   1.397   1_455  A
C230        C233   1.444       .  S
C233        N235   1.157       .  T
C234        N236   1.156       .  T
C237        C238   1.407       .  A
C237        C242   1.415       .  A
C238        C239   1.400       .  A
C238        H243   1.085       .  S
C239        C240   1.412       .  A
C239        C246   1.445       .  S
C240        C241   1.405       .  A
C241        C242   1.399       .  A
C241        H244   1.085       .  S
C242        C245   1.445       .  S
C245        N247   1.157       .  T
C246        N248   1.157       .  T
C249        C250   1.407       .  A
C249        C254   1.419       .  A
C250        C251   1.408       .  A
C250        H255   1.084       .  S
C251        C252   1.419       .  A
C251        C258   1.444       .  S
C252        C253   1.404       .  A
C253        C254   1.401       .  A
C253        H256   1.085       .  S
C254        C257   1.445       .  S
C257        N259   1.157       .  T
C258        N260   1.157       .  T
C261        C262   1.403       .  A
C261        C266   1.411       .  A
C262        C263   1.381       .  A
C262        H267   1.086       .  S
C263        C264   1.411       .  A
C263        C270   1.447       .  S
C264        C265   1.411       .  A
C265        C266   1.414       .  A
C265        H268   1.084       .  S
C266        C269   1.442       .  S
C269        N271   1.157       .  T
C270        N272   1.157       .  T
C273        C274   1.400       .  A
C273        C278   1.403       .  A
C274        C275   1.397       .  A
C274        H279   1.086       .  S
C275        C276   1.412       .  A
C275        C282   1.443       .  S
C276        C277   1.409       .  A
C277        C278   1.394       .  A
C277        H280   1.085       .  S
C278        C281   1.445       .  S
C281        N283   1.157       .  T
C282        N284   1.157       .  T
C285        C290   1.413       .  A
C285        C750   1.400   1_554  A
C286        C287   1.402   1_565  A
C286        C749   1.400       .  A
C286        H291   1.085       .  S
C287        C288   1.421       .  A
C287        C294   1.444       .  S
C288        C753   1.406       .  A
C289        C290   1.401   1_545  A
C289        C752   1.406   1_554  A
C289        H292   1.084       .  S
C290        C293   1.445       .  S
C293        N295   1.157       .  T
C294        N296   1.157       .  T
C297        C298   1.405       .  A
C297        C302   1.406       .  A
C298        C299   1.394       .  A
C298        H303   1.085       .  S
C299        C300   1.404       .  A
C299        C306   1.444       .  S
C300        C301   1.406       .  A
C301        C302   1.399       .  A
C301        H304   1.085       .  S
C302        C305   1.444       .  S
C305        N307   1.157       .  T
C306        N308   1.157       .  T
C309        C310   1.410       .  A
C309        C314   1.427       .  A
C310        C311   1.409       .  A
C310        H315   1.083       .  S
C311        C312   1.408       .  A
C311        C318   1.442       .  S
C312        C313   1.392       .  A
C313        C314   1.387       .  A
C313        H316   1.087       .  S
C314        C317   1.447       .  S
C317        N319   1.157       .  T
C318        N320   1.157       .  T
C321        C322   1.408       .  A
C321        C326   1.424       .  A
C322        C323   1.411       .  A
C322        H327   1.084       .  S
C323        C324   1.421       .  A
C323        C330   1.444       .  S
C324        C325   1.403       .  A
C325        C326   1.400       .  A
C325        H328   1.085       .  S
C326        C329   1.446       .  S
C329        N331   1.158       .  T
C330        N332   1.157       .  T
C333        C334   1.407       .  A
C333        C338   1.423       .  A
C334       C1727   1.412   1_455  A
C334        H339   1.084       .  S
C335        C336   1.414   1_556  A
C335       C1726   1.412       .  A
C335        C342   1.443       .  S
C336       C1729   1.392       .  A
C337        C338   1.388       .  A
C337       C1728   1.392   1_455  A
C337        H340   1.087       .  S
C338        C341   1.443       .  S
C341        N343   1.157       .  T
C342        N344   1.157       .  T
C345        C350   1.407       .  A
C345        C810   1.404   1_554  A
C346        C347   1.395       .  A
C346        C809   1.404       .  A
C346        H351   1.082       .  S
C347        C812   1.406       .  A
C347        C354   1.444       .  S
C348        C514   1.473       .  S
C348        C349   1.407   1_556  A
C348        C811   1.406       .  A
C349        C350   1.403       .  A
C349        H352   1.085       .  S
C350        C353   1.444       .  S
C353        N355   1.157       .  T
C354        N356   1.157       .  T
C357        C358   1.412       .  A
C357       C1290   1.420       .  A
C358       C1287   1.411       .  A
C358        H363   1.084       .  S
C359        C360   1.417   1_655  A
C359       C1286   1.411       .  A
C359       C1294   1.444       .  S
C360        C361   1.410       .  A
C361        C362   1.407       .  A
C361        H364   1.085       .  S
C362       C1285   1.420   1_455  A
C362        C365   1.444       .  S
C365        N367   1.158       .  T
C366       C1287   1.444       .  S
C366        N368   1.157       .  T
C369        C370   1.410       .  A
C369        C374   1.419       .  A
C370        C371   1.410       .  A
C370        H375   1.084       .  S
C371        C372   1.409       .  A
C371        C378   1.443       .  S
C372        C373   1.395       .  A
C373        C374   1.385       .  A
C373        H376   1.086       .  S
C374        C377   1.447       .  S
C377        N379   1.157       .  T
C378        N380   1.157       .  T
C381        C382   1.406       .  A
C381        C386   1.410       .  A
C382        C383   1.398       .  A
C382        H387   1.085       .  S
C383        C384   1.406       .  A
C383        C390   1.444       .  S
C384        C385   1.405       .  A
C385        C386   1.403       .  A
C385        H388   1.083       .  S
C386        C389   1.444       .  S
C389        N391   1.157       .  T
C390        N392   1.157       .  T
C393        C394   1.408       .  A
C393       C1326   1.421       .  A
C394       C1323   1.406       .  A
C394        H399   1.084       .  S
C395        C396   1.417   1_655  A
C395       C1322   1.406       .  A
C395        C402   1.443       .  S
C396        C397   1.403       .  A
C397        C398   1.403       .  A
C397        H400   1.083       .  S
C398       C1321   1.421   1_455  A
C398        C401   1.444       .  S
C401        N403   1.157       .  T
C402        N404   1.157       .  T
C405        C470   1.470       .  S
C405       C1334   1.408   1_556  A
C405       C1802   1.406       .  A
C406        C407   1.401       .  A
C406       C1333   1.408   1_554  A
C406        H411   1.085   1_455  S
C407        C408   1.405       .  A
C407        C414   1.443       .  S
C408        C873   1.405   1_554  A
C409        C410   1.394       .  A
C409        C872   1.405       .  A
C409        H412   1.084       .  S
C410       C1797   1.406       .  A
C410       C1341   1.446       .  S
C413       C1338   1.446       .  S
C413        N415   1.157       .  T
C414        N416   1.157       .  T
C417        C422   1.414   1_554  A
C417        C882   1.392       .  A
C418        C419   1.386       .  A
C418        C881   1.392       .  A
C418        H423   1.087       .  S
C419        C420   1.424       .  A
C419        C426   1.444       .  S
C420        C421   1.404       .  A
C421        C886   1.408       .  A
C421        H424   1.084       .  S
C422        C885   1.408       .  A
C422        C425   1.443       .  S
C425        N427   1.157       .  T
C426        N428   1.158       .  T
C429        C430   1.408       .  A
C429        C898   1.415       .  A
C430        C431   1.404       .  A
C430        H435   1.084       .  S
C431        C896   1.412       .  A
C431        C438   1.444       .  S
C432        C433   1.406       .  A
C432        C895   1.412   1_554  A
C433        C434   1.403       .  A
C433        H436   1.085       .  S
C434        C893   1.415   1_554  A
C434        C437   1.445       .  S
C437        N439   1.157       .  T
C438        N440   1.157       .  T
C441        C442   1.406       .  A
C441        C446   1.422       .  A
C442        C443   1.405       .  A
C442        H447   1.084       .  S
C443        C444   1.409       .  A
C443        C450   1.444       .  S
C444        C445   1.392       .  A
C445        C446   1.392       .  A
C445        H448   1.086       .  S
C446        C449   1.443       .  S
C449        N451   1.157       .  T
C450        N452   1.157       .  T
C453        C454   1.394       .  A
C453        C458   1.411       .  A
C454        C455   1.394       .  A
C454        H459   1.086       .  S
C455        C456   1.419       .  A
C455        C462   1.446       .  S
C456        C457   1.403       .  A
C457        C458   1.402       .  A
C457        H460   1.085       .  S
C458        C461   1.444       .  S
C461        N463   1.157       .  T
C462        N464   1.157       .  T
O465        C480   1.254       .  A
C466        O476   1.270       .  A
C466        O467   1.268       .  A
C466        C857   1.501       .  S
O468        C470   1.255       .  A
Al469       O477   1.893       .  S
Al469       O479   1.937       .  S
C470        O483   1.252       .  A
O471        C481   1.264       .  A
O471       Al473   1.897       .  S
O472        C485   1.271       .  A
O472       Al482   1.948       .  S
Al473       O486   1.889       .  S
Al473       O483   1.892       .  S
Al473       O478   1.783       .  S
O474        C481   1.266       .  A
O474       Al482   1.918       .  S
O475        C484   1.258       .  A
O475       Al482   1.914       .  S
O476       Al482   1.915       .  S
O478       Al482   1.777       .  S
O479        C480   1.268       .  A
C480        C917   1.461       .  S
C481        C908   1.461       .  S
C484        C893   1.491       .  S
C485        O486   1.256       .  A
C485        C884   1.482       .  S
O487        C502   1.258       .  A
C488        O498   1.272       .  A
C488        O489   1.277       .  A
C488        C821   1.511       .  S
O489       Al491   1.950       .  S
O490        C492   1.255       .  A
O490       Al491   1.870       .  S
Al491       O500   1.777       .  S
C492        O505   1.255       .  A
C492        C800   1.477       .  S
O493        C503   1.262       .  A
O493       Al495   1.929       .  S
O494        C507   1.273       .  A
O494       Al504   1.922       .  S
Al495       O508   1.896       .  S
Al495       O505   1.908       .  S
Al495       O500   1.791       .  S
O496        C503   1.252       .  A
O496       Al504   1.881       .  S
O497        C506   1.251       .  A
O497       Al504   1.903       .  S
O498       Al504   1.912       .  S
O500       Al504   1.786       .  S
O501        C502   1.265       .  A
C502        C848   1.471       .  S
C503        C833   1.483       .  S
C506        C896   1.488       .  S
C507        O508   1.267       .  A
C507        C809   1.467       .  S
O509        C524   1.257       .  A
C510        O520   1.272       .  A
C510        O511   1.264       .  A
C510        C785   1.505       .  S
O512        C514   1.257       .  A
Al513       O521   1.901       .  S
Al513       O523   1.920       .  S
C514        O527   1.252       .  A
O515        C525   1.265       .  A
O515       Al517   1.912       .  S
O516        C529   1.272       .  A
O516       Al526   1.954       .  S
Al517       O530   1.891       .  S
Al517       O527   1.895       .  S
Al517       O522   1.784       .  S
O518        C525   1.263       .  A
O518       Al526   1.902       .  S
O519        C528   1.255       .  A
O519       Al526   1.898       .  S
O520       Al526   1.937       .  S
O522       Al526   1.777       .  S
O523        C524   1.264       .  A
C524        C764   1.463       .  S
C525        C776   1.465       .  S
C528        C752   1.492       .  S
C529        O530   1.258       .  A
C529        C797   1.488   1_556  S
O531        C546   1.253       .  A
C532        O542   1.269       .  A
C532        O533   1.283       .  A
C532        C713   1.497       .  S
O533       Al535   1.970       .  S
O534        C536   1.253       .  A
O534       Al535   1.865       .  S
Al535       O544   1.773       .  S
C536        O549   1.252       .  A
C536        C881   1.472       .  S
O537        C547   1.253       .  A
O537       Al539   1.889       .  S
O538        C551   1.271       .  A
O538       Al548   1.913       .  S
Al539       O552   1.911       .  S
Al539       O549   1.896       .  S
Al539       O544   1.778       .  S
O540        C547   1.259       .  A
O540       Al548   1.916       .  S
O541        C550   1.251       .  A
O541       Al548   1.902       .  S
O542       Al548   1.878       .  S
O544       Al548   1.786       .  S
O545        C546   1.271       .  A
C546        C725   1.481       .  S
C547        C737   1.456       .  S
C550        C749   1.480       .  S
C551        O552   1.269       .  A
C551        C872   1.467       .  S
O553        C568   1.250       .  A
O553       Al561   1.838       .  S
C554        O564   1.273       .  A
C554        O555   1.283       .  A
C554        C824   1.508       .  S
O555       Al557   1.970       .  S
O556        C558   1.253       .  A
O556       Al557   1.879       .  S
Al557       O565   1.888       .  S
Al557       O567   1.948       .  S
Al557       O566   1.779       .  S
C558        O571   1.256       .  A
C558        C689   1.470       .  S
O559        C569   1.254       .  A
O559       Al561   1.899       .  S
O560        C573   1.269       .  A
O560       Al570   1.911       .  S
Al561       O574   1.920       .  S
Al561       O571   1.904       .  S
Al561       O566   1.783       .  S
O562        C569   1.255       .  A
O562       Al570   1.894       .  S
O563        C572   1.250       .  A
O563       Al570   1.898       .  S
O564       Al570   1.897       .  S
O565        C572   1.248       .  A
O566       Al570   1.791       .  S
O567        C568   1.269       .  A
C568        C773   1.493       .  S
C569        C761   1.465       .  S
C572        C701   1.485       .  S
C573        O574   1.271       .  A
C573        C680   1.471       .  S
O575        C590   1.257       .  A
O575       Al583   1.862       .  S
C576        O586   1.271       .  A
C576        O577   1.275       .  A
C576        C860   1.496       .  S
O577       Al579   1.945       .  S
O578        C580   1.251       .  A
O578       Al579   1.853       .  S
Al579       O587   1.889       .  S
Al579       O589   1.914       .  S
Al579       O588   1.773       .  S
C580        O593   1.260       .  A
C580        C665   1.477       .  S
O581        C591   1.261       .  A
O581       Al583   1.921       .  S
O582        C595   1.271       .  A
O582       Al592   1.917       .  S
Al583       O596   1.923       .  S
Al583       O593   1.928       .  S
Al583       O588   1.789       .  S
O584        C591   1.256       .  A
O584       Al592   1.888       .  S
O585        C594   1.251       .  A
O585       Al592   1.902       .  S
O586       Al592   1.903       .  S
O587        C594   1.249       .  A
O588       Al592   1.780       .  S
O589        C590   1.264       .  A
C590        C740   1.474       .  S
C591        C728   1.478       .  S
C594        C704   1.482       .  S
C595        O596   1.271       .  A
C595        C656   1.470       .  S
O597        C612   1.256       .  A
O597       Al605   1.855       .  S
C598        O608   1.269       .  A
C598        O599   1.271       .  A
C598        C788   1.503       .  S
O599       Al601   1.939       .  S
O600        C602   1.254       .  A
O600       Al601   1.878       .  S
Al601       O609   1.889       .  S
Al601       O611   1.935       .  S
Al601       O610   1.780       .  S
C602        O615   1.258       .  A
C602        C677   1.471       .  S
O603        C613   1.261       .  A
O603       Al605   1.906       .  S
O604        C617   1.267       .  A
O604       Al614   1.918       .  S
Al605       O618   1.910       .  S
Al605       O615   1.917       .  S
Al605       O610   1.781       .  S
O606        C613   1.261       .  A
O606       Al614   1.913       .  S
O607        C616   1.257       .  A
O607       Al614   1.910       .  S
O608       Al614   1.903       .  S
O609        C616   1.254       .  A
O610       Al614   1.783       .  S
O611        C612   1.266       .  A
C612        C836   1.467       .  S
C613        C845   1.477       .  S
C616        C641   1.482       .  S
C617        O618   1.265       .  A
C617        C692   1.468       .  S
O619        C634   1.276       .  A
O619       Al627   1.919       .  S
C620        O630   1.285       .  A
C620        O621   1.282       .  A
C620        C716   1.495       .  S
O621       Al623   1.907       .  S
O622        C624   1.246       .  A
O622       Al623   1.880       .  S
Al623       O631   1.879       .  S
Al623       O633   1.922       .  S
Al623       O632   1.775       .  S
C624        O637   1.254       .  A
C624        C653   1.482       .  S
O625        C635   1.258       .  A
O625       Al627   1.902       .  S
O626        C639   1.263       .  A
O626       Al636   1.919       .  S
Al627       O640   1.883       .  S
Al627       O637   1.928       .  S
Al627       O632   1.779       .  S
O628        C635   1.254       .  A
O628       Al636   1.875       .  S
O629        C638   1.245       .  A
O629       Al636   1.904       .  S
O630       Al636   1.955       .  S
O631        C638   1.242       .  A
O632       Al636   1.775       .  S
O633        C634   1.281       .  A
C634        C905   1.483       .  S
C635        C920   1.477       .  S
C638        C644   1.474       .  S
C639        O640   1.260       .  A
C639        C668   1.475       .  S
C641        C642   1.408       .  A
C641        C646   1.414       .  A
C642        C643   1.405   1_545  A
C642        H647   1.084       .  S
C643        C644   1.408       .  A
C643        C650   1.443       .  S
C644        C645   1.402       .  A
C645        C646   1.396   1_565  A
C645        H648   1.085       .  S
C646        C649   1.445       .  S
C649        N651   1.157       .  T
C650        N652   1.157       .  T
C653        C654   1.407       .  A
C653        C658   1.410       .  A
C654        C655   1.396       .  A
C654        H659   1.085       .  S
C655        C656   1.405       .  A
C655        C662   1.446       .  S
C656        C657   1.407       .  A
C657        C658   1.408       .  A
C657        H660   1.084       .  S
C658        C661   1.442       .  S
C661        N663   1.157       .  T
C662        N664   1.157       .  T
C665       C1594   1.401       .  A
C665        C670   1.409       .  A
C666       C1593   1.401       .  A
C666        C667   1.387       .  A
C666        H671   1.085       .  S
C667        C668   1.409       .  A
C667        C674   1.445       .  S
C668        C669   1.410       .  A
C669       C1598   1.413       .  A
C669        H672   1.084       .  S
C670       C1597   1.413   1_455  A
C670        C673   1.442       .  S
C673        N675   1.157       .  T
C674        N676   1.157       .  T
C677        C678   1.407       .  A
C677        C682   1.407       .  A
C678        C679   1.405       .  A
C678        H683   1.085       .  S
C679        C680   1.408       .  A
C679        C686   1.443       .  S
C680        C681   1.402       .  A
C681        C682   1.396       .  A
C681        H684   1.083       .  S
C682        C685   1.444       .  S
C685        N687   1.157       .  T
C686        N688   1.157       .  T
C689       C1618   1.400   1_455  A
C689        C694   1.412       .  A
C690       C1617   1.400       .  A
C690        C691   1.404       .  A
C690        H695   1.085       .  S
C691        C692   1.412       .  A
C691        C698   1.441       .  S
C692        C693   1.398       .  A
C693       C1622   1.397       .  A
C693        H696   1.085       .  S
C694       C1621   1.397   1_455  A
C694        C697   1.444       .  S
C697        N699   1.157       .  T
C698        N700   1.156       .  T
C701        C702   1.407       .  A
C701        C706   1.415       .  A
C702        C703   1.400       .  A
C702        H707   1.085       .  S
C703        C704   1.412       .  A
C703        C710   1.445       .  S
C704        C705   1.405       .  A
C705        C706   1.399       .  A
C705        H708   1.085       .  S
C706        C709   1.445       .  S
C709        N711   1.157       .  T
C710        N712   1.157       .  T
C713        C714   1.407       .  A
C713        C718   1.419       .  A
C714        C715   1.408       .  A
C714        H719   1.084       .  S
C715        C716   1.419       .  A
C715        C722   1.444       .  S
C716        C717   1.404       .  A
C717        C718   1.401       .  A
C717        H720   1.085       .  S
C718        C721   1.445       .  S
C721        N723   1.157       .  T
C722        N724   1.157       .  T
C725        C726   1.403       .  A
C725        C730   1.411       .  A
C726        C727   1.381       .  A
C726        H731   1.086       .  S
C727        C728   1.411       .  A
C727        C734   1.447       .  S
C728        C729   1.411       .  A
C729        C730   1.414       .  A
C729        H732   1.084       .  S
C730        C733   1.442       .  S
C733        N735   1.157       .  T
C734        N736   1.157       .  T
C737        C738   1.400       .  A
C737        C742   1.403       .  A
C738        C739   1.397       .  A
C738        H743   1.086       .  S
C739        C740   1.412       .  A
C739        C746   1.443       .  S
C740        C741   1.409       .  A
C741        C742   1.394       .  A
C741        H744   1.085       .  S
C742        C745   1.445       .  S
C745        N747   1.157       .  T
C746        N748   1.157       .  T
C749        C754   1.413       .  A
C750        C751   1.402   1_565  A
C750        H755   1.085       .  S
C751        C752   1.421       .  A
C751        C758   1.444       .  S
C753        C754   1.401   1_545  A
C753        H756   1.084       .  S
C754        C757   1.445       .  S
C757        N759   1.157       .  T
C758        N760   1.157       .  T
C761        C762   1.405       .  A
C761        C766   1.406       .  A
C762        C763   1.394       .  A
C762        H767   1.085       .  S
C763        C764   1.404       .  A
C763        C770   1.444       .  S
C764        C765   1.406       .  A
C765        C766   1.399       .  A
C765        H768   1.085       .  S
C766        C769   1.444       .  S
C769        N771   1.157       .  T
C770        N772   1.157       .  T
C773        C774   1.410       .  A
C773        C778   1.427       .  A
C774        C775   1.409       .  A
C774        H779   1.083       .  S
C775        C776   1.408       .  A
C775        C782   1.442       .  S
C776        C777   1.392       .  A
C777        C778   1.387       .  A
C777        H780   1.087       .  S
C778        C781   1.447       .  S
C781        N783   1.157       .  T
C782        N784   1.157       .  T
C785        C786   1.408       .  A
C785        C790   1.424       .  A
C786        C787   1.411       .  A
C786        H791   1.084       .  S
C787        C788   1.421       .  A
C787        C794   1.444       .  S
C788        C789   1.403       .  A
C789        C790   1.400       .  A
C789        H792   1.085       .  S
C790        C793   1.446       .  S
C793        N795   1.158       .  T
C794        N796   1.157       .  T
C797        C798   1.407   1_554  A
C797        C802   1.423       .  A
C798       C1263   1.412   1_455  A
C798        H803   1.084       .  S
C799       C1262   1.412       .  A
C799        C800   1.414       .  A
C799        C806   1.443       .  S
C800       C1265   1.392       .  A
C801       C1264   1.392   1_455  A
C801        C802   1.388       .  A
C801        H804   1.087       .  S
C802        C805   1.443       .  S
C805        N807   1.157       .  T
C806        N808   1.157       .  T
C809        C814   1.407       .  A
C810        C811   1.395       .  A
C810        H815   1.082       .  S
C811        C818   1.444       .  S
C812        C813   1.407       .  A
C813        C814   1.403       .  A
C813        H816   1.085       .  S
C814        C817   1.444       .  S
C817        N819   1.157       .  T
C818        N820   1.157       .  T
C821        C822   1.412       .  A
C821       C1754   1.420       .  A
C822       C1751   1.411       .  A
C822        H827   1.084       .  S
C823       C1750   1.411       .  A
C823        C824   1.417   1_655  A
C823       C1758   1.444       .  S
C824        C825   1.410       .  A
C825        C826   1.407       .  A
C825        H828   1.085       .  S
C826       C1749   1.420   1_455  A
C826        C829   1.444       .  S
C829        N831   1.158       .  T
C830       C1751   1.444       .  S
C830        N832   1.157       .  T
C833        C834   1.410       .  A
C833        C838   1.419       .  A
C834        C835   1.410       .  A
C834        H839   1.084       .  S
C835        C836   1.409       .  A
C835        C842   1.443       .  S
C836        C837   1.395       .  A
C837        C838   1.385       .  A
C837        H840   1.086       .  S
C838        C841   1.447       .  S
C841        N843   1.157       .  T
C842        N844   1.157       .  T
C845        C846   1.406       .  A
C845        C850   1.410       .  A
C846        C847   1.398       .  A
C846        H851   1.085       .  S
C847        C848   1.406       .  A
C847        C854   1.444       .  S
C848        C849   1.405       .  A
C849        C850   1.403       .  A
C849        H852   1.083       .  S
C850        C853   1.444       .  S
C853        N855   1.157       .  T
C854        N856   1.157       .  T
C857        C858   1.408       .  A
C857       C1790   1.421       .  A
C858       C1787   1.406       .  A
C858        H863   1.084       .  S
C859       C1786   1.406       .  A
C859        C860   1.417   1_655  A
C859        C866   1.443       .  S
C860        C861   1.403       .  A
C861        C862   1.403       .  A
C861        H864   1.083       .  S
C862       C1785   1.421   1_455  A
C862        C865   1.444       .  S
C865        N867   1.157       .  T
C866        N868   1.157       .  T
C869       C1798   1.408       .  A
C869       C1338   1.406       .  A
C870       C1797   1.408       .  A
C870        C871   1.401       .  A
C870        H875   1.085   1_455  S
C871        C872   1.405       .  A
C871        C878   1.443       .  S
C873        C874   1.394       .  A
C873        H876   1.084       .  S
C874       C1333   1.406       .  A
C874       C1805   1.446       .  S
C877       C1802   1.446       .  S
C877        N879   1.157       .  T
C878        N880   1.157       .  T
C881        C886   1.414       .  A
C882        C883   1.386       .  A
C882        H887   1.087       .  S
C883        C884   1.424   1_554  A
C883        C890   1.444       .  S
C884        C885   1.404       .  A
C885        H888   1.084       .  S
C886        C889   1.443       .  S
C889        N891   1.157       .  T
C890        N892   1.158       .  T
C893        C894   1.408       .  A
C894        C895   1.404       .  A
C894        H899   1.084       .  S
C895        C902   1.444       .  S
C896        C897   1.406       .  A
C897        C898   1.403       .  A
C897        H900   1.085       .  S
C898        C901   1.445       .  S
C901        N903   1.157       .  T
C902        N904   1.157       .  T
C905        C906   1.406       .  A
C905        C910   1.422       .  A
C906        C907   1.405       .  A
C906        H911   1.084       .  S
C907        C908   1.409       .  A
C907        C914   1.444       .  S
C908        C909   1.392       .  A
C909        C910   1.392       .  A
C909        H912   1.086       .  S
C910        C913   1.443       .  S
C913        N915   1.157       .  T
C914        N916   1.157       .  T
C917        C918   1.394       .  A
C917        C922   1.411       .  A
C918        C919   1.394       .  A
C918        H923   1.086       .  S
C919        C920   1.419       .  A
C919        C926   1.446       .  S
C920        C921   1.403       .  A
C921        C922   1.402       .  A
C921        H924   1.085       .  S
C922        C925   1.444       .  S
C925        N927   1.157       .  T
C926        N928   1.157       .  T
O929        C944   1.254       .  A
O929      Al1401   1.857   1_554  S
C930        O940   1.270       .  A
C930        O931   1.268       .  A
C930       C1321   1.501       .  S
O931      Al1397   1.918       .  S
O932        C934   1.255       .  A
O932      Al1397   1.890       .  S
Al933      O1395   1.918       .  S
Al933      O1396   1.890       .  S
Al933       O941   1.893   1_556  S
Al933       O943   1.937   1_556  S
Al933      O1406   1.775       .  S
C934        O947   1.252       .  A
C934       C1797   1.470   1_655  S
O935        C945   1.264       .  A
O935       Al937   1.897       .  S
O936        C949   1.271       .  A
O936       Al946   1.948       .  S
Al937      O1393   1.857       .  S
Al937       O950   1.889       .  S
Al937       O947   1.892       .  S
Al937       O942   1.783       .  S
O938        C945   1.266       .  A
O938       Al946   1.918       .  S
O939        C948   1.258       .  A
O939       Al946   1.914       .  S
O940       Al946   1.915       .  S
O941       C1412   1.255   1_554  A
O942      Al1397   1.775       .  S
O942       Al946   1.777       .  S
O943        C944   1.268       .  A
C944       C1381   1.461       .  S
C945       C1372   1.461       .  S
C948       O1405   1.255       .  A
C948       C1357   1.491       .  S
C949        O950   1.256       .  A
C949       C1348   1.482       .  S
O951        C966   1.258       .  A
O951      Al1423   1.880       .  S
C952        O962   1.272       .  A
C952        O953   1.277       .  A
C952       C1285   1.511       .  S
O953       Al955   1.950       .  S
O954        C956   1.255       .  A
O954       Al955   1.870       .  S
Al955      O1427   1.909       .  S
Al955      O1429   1.921   1_554  S
Al955       O964   1.777       .  S
C956        O969   1.255       .  A
C956       C1264   1.477       .  S
O957        C967   1.262       .  A
O957       Al959   1.929       .  S
O958        C971   1.273       .  A
O958       Al968   1.922       .  S
Al959      O1415   1.880   1_554  S
Al959       O972   1.896       .  S
Al959       O969   1.908       .  S
Al959       O964   1.791       .  S
O960        C967   1.252       .  A
O960       Al968   1.881       .  S
O961        C970   1.251       .  A
O961       Al968   1.903       .  S
O962       Al968   1.912       .  S
O963       C1434   1.253       .  A
O963      Al1419   1.909       .  S
O964       Al968   1.786       .  S
O965        C966   1.265       .  A
O965      Al1419   1.921       .  S
C966       C1312   1.471       .  S
C967       C1297   1.483       .  S
C970       O1427   1.253       .  A
C970       C1360   1.488       .  S
C971        O972   1.267       .  A
C971       C1273   1.467       .  S
O973        C988   1.257       .  A
O973      Al1445   1.866   1_554  S
C974        O984   1.272       .  A
C974        O975   1.264       .  A
C974       C1249   1.505       .  S
O975      Al1441   1.905       .  S
O976        C978   1.257       .  A
O976      Al1441   1.899       .  S
Al977      O1439   1.905       .  S
Al977      O1440   1.899       .  S
Al977       O985   1.901   1_556  S
Al977       O987   1.920   1_556  S
Al977      O1450   1.780       .  S
C978        O991   1.252       .  A
C978       C1740   1.473       .  S
O979        C989   1.265       .  A
O979       Al981   1.912       .  S
O980        C993   1.272       .  A
O980       Al990   1.954       .  S
Al981      O1437   1.866       .  S
Al981       O994   1.891       .  S
Al981       O991   1.895       .  S
Al981       O986   1.784       .  S
O982        C989   1.263       .  A
O982       Al990   1.902       .  S
O983        C992   1.255       .  A
O983       Al990   1.898       .  S
O984       Al990   1.937       .  S
O985       C1456   1.257   1_554  A
O986      Al1441   1.780       .  S
O986       Al990   1.777       .  S
O987        C988   1.264       .  A
C988       C1228   1.463       .  S
C989       C1240   1.465       .  S
C992       O1449   1.257       .  A
C992       C1216   1.492       .  S
C993        O994   1.258       .  A
C993       C1261   1.488       .  S
O995       C1010   1.253       .  A
O995      Al1467   1.827       .  S
C996       O1006   1.269       .  A
C996        O997   1.283       .  A
C996       C1177   1.497       .  S
O997       Al999   1.970       .  S
O998       C1000   1.253       .  A
O998       Al999   1.865       .  S
Al999      O1471   1.898       .  S
Al999      O1473   1.956   1_554  S
Al999      O1008   1.773       .  S
C1000      O1013   1.252       .  A
C1000      C1345   1.472       .  S
O1001      C1011   1.253       .  A
O1001     Al1003   1.889       .  S
O1002      C1015   1.271       .  A
O1002     Al1012   1.913       .  S
Al1003     O1459   1.827   1_554  S
Al1003     O1016   1.911       .  S
Al1003     O1013   1.896       .  S
Al1003     O1008   1.778       .  S
O1004      C1011   1.259       .  A
O1004     Al1012   1.916       .  S
O1005      C1014   1.251       .  A
O1005     Al1012   1.902       .  S
O1006     Al1012   1.878       .  S
O1007      C1478   1.251       .  A
O1007     Al1463   1.898       .  S
O1008     Al1012   1.786       .  S
O1009      C1010   1.271       .  A
O1009     Al1463   1.956       .  S
C1010      C1189   1.481       .  S
C1011      C1201   1.456       .  S
C1014      O1471   1.251       .  A
C1014      C1213   1.480       .  S
C1015      O1016   1.269       .  A
C1015      C1336   1.467       .  S
O1017      C1032   1.250       .  A
O1017     Al1025   1.838       .  S
C1018      O1028   1.273       .  A
C1018      O1019   1.283       .  A
C1018      C1288   1.508       .  S
O1019     Al1021   1.970       .  S
O1020      C1022   1.253       .  A
O1020     Al1021   1.879       .  S
Al1021     O1029   1.888       .  S
Al1021     O1031   1.948       .  S
Al1021     O1030   1.779       .  S
C1022      O1035   1.256       .  A
C1022      C1153   1.470       .  S
O1023      C1033   1.254       .  A
O1023     Al1025   1.899       .  S
O1024      C1037   1.269       .  A
O1024     Al1034   1.911       .  S
Al1025     O1038   1.920       .  S
Al1025     O1035   1.904       .  S
Al1025     O1030   1.783       .  S
O1026      C1033   1.255       .  A
O1026     Al1034   1.894       .  S
O1027      C1036   1.250       .  A
O1027     Al1034   1.898       .  S
O1028     Al1034   1.897       .  S
O1029      C1036   1.248       .  A
O1030     Al1034   1.791       .  S
O1031      C1032   1.269       .  A
C1032      C1237   1.493       .  S
C1033      C1225   1.465       .  S
C1036      C1165   1.485       .  S
C1037      O1038   1.271       .  A
C1037      C1144   1.471       .  S
O1039      C1054   1.257       .  A
O1039     Al1047   1.862       .  S
C1040      O1050   1.271       .  A
C1040      O1041   1.275       .  A
C1040      C1324   1.496       .  S
O1041     Al1043   1.945       .  S
O1042      C1044   1.251       .  A
O1042     Al1043   1.853       .  S
Al1043     O1051   1.889       .  S
Al1043     O1053   1.914       .  S
Al1043     O1052   1.773       .  S
C1044      O1057   1.260       .  A
C1044      C1129   1.477       .  S
O1045      C1055   1.261       .  A
O1045     Al1047   1.921       .  S
O1046      C1059   1.271       .  A
O1046     Al1056   1.917       .  S
Al1047     O1060   1.923       .  S
Al1047     O1057   1.928       .  S
Al1047     O1052   1.789       .  S
O1048      C1055   1.256       .  A
O1048     Al1056   1.888       .  S
O1049      C1058   1.251       .  A
O1049     Al1056   1.902       .  S
O1050     Al1056   1.903       .  S
O1051      C1058   1.249       .  A
O1052     Al1056   1.780       .  S
O1053      C1054   1.264       .  A
C1054      C1204   1.474       .  S
C1055      C1192   1.478       .  S
C1058      C1168   1.482       .  S
C1059      O1060   1.271       .  A
C1059      C1120   1.470       .  S
O1061      C1076   1.256       .  A
O1061     Al1069   1.855       .  S
C1062      O1072   1.269       .  A
C1062      O1063   1.271       .  A
C1062      C1252   1.503       .  S
O1063     Al1065   1.939       .  S
O1064      C1066   1.254       .  A
O1064     Al1065   1.878       .  S
Al1065     O1073   1.889       .  S
Al1065     O1075   1.935       .  S
Al1065     O1074   1.780       .  S
C1066      O1079   1.258       .  A
C1066      C1141   1.471       .  S
O1067      C1077   1.261       .  A
O1067     Al1069   1.906       .  S
O1068      C1081   1.267       .  A
O1068     Al1078   1.918       .  S
Al1069     O1082   1.910       .  S
Al1069     O1079   1.917       .  S
Al1069     O1074   1.781       .  S
O1070      C1077   1.261       .  A
O1070     Al1078   1.913       .  S
O1071      C1080   1.257       .  A
O1071     Al1078   1.910       .  S
O1072     Al1078   1.903       .  S
O1073      C1080   1.254       .  A
O1074     Al1078   1.783       .  S
O1075      C1076   1.266       .  A
C1076      C1300   1.467       .  S
C1077      C1309   1.477       .  S
C1080      C1105   1.482       .  S
C1081      O1082   1.265       .  A
C1081      C1156   1.468       .  S
O1083      C1098   1.276       .  A
O1083     Al1091   1.919       .  S
C1084      O1094   1.285       .  A
C1084      O1085   1.282       .  A
C1084      C1180   1.495       .  S
O1085     Al1087   1.907       .  S
O1086      C1088   1.246       .  A
O1086     Al1087   1.880       .  S
Al1087     O1095   1.879       .  S
Al1087     O1097   1.922       .  S
Al1087     O1096   1.775       .  S
C1088      O1101   1.254       .  A
C1088      C1117   1.482       .  S
O1089      C1099   1.258       .  A
O1089     Al1091   1.902       .  S
O1090      C1103   1.263       .  A
O1090     Al1100   1.919       .  S
Al1091     O1104   1.883       .  S
Al1091     O1101   1.928       .  S
Al1091     O1096   1.779       .  S
O1092      C1099   1.254       .  A
O1092     Al1100   1.875       .  S
O1093      C1102   1.245       .  A
O1093     Al1100   1.904       .  S
O1094     Al1100   1.955       .  S
O1095      C1102   1.242       .  A
O1096     Al1100   1.775       .  S
O1097      C1098   1.281       .  A
C1098      C1369   1.483       .  S
C1099      C1384   1.477       .  S
C1102      C1108   1.474       .  S
C1103      O1104   1.260       .  A
C1103      C1132   1.475       .  S
C1105      C1106   1.408       .  A
C1105      C1110   1.414       .  A
C1106      C1107   1.405   1_545  A
C1106      H1111   1.084       .  S
C1107      C1108   1.408       .  A
C1107      C1114   1.443       .  S
C1108      C1109   1.402       .  A
C1109      C1110   1.396   1_565  A
C1109      H1112   1.085       .  S
C1110      C1113   1.445       .  S
C1113      N1115   1.157       .  T
C1114      N1116   1.157       .  T
C1117      C1118   1.407       .  A
C1117      C1122   1.410       .  A
C1118      C1119   1.396       .  A
C1118      H1123   1.085       .  S
C1119      C1120   1.405       .  A
C1119      C1126   1.446       .  S
C1120      C1121   1.407       .  A
C1121      C1122   1.408       .  A
C1121      H1124   1.084       .  S
C1122      C1125   1.442       .  S
C1125      N1127   1.157       .  T
C1126      N1128   1.157       .  T
C1129      C1134   1.409       .  A
C1130      C1131   1.387   1_455  A
C1130      H1135   1.085       .  S
C1131      C1132   1.409       .  A
C1131      C1138   1.445       .  S
C1132      C1133   1.410       .  A
C1133      H1136   1.084       .  S
C1134      C1137   1.442       .  S
C1137      N1139   1.157       .  T
C1138      N1140   1.157       .  T
C1141      C1142   1.407       .  A
C1141      C1146   1.407       .  A
C1142      C1143   1.405       .  A
C1142      H1147   1.085       .  S
C1143      C1144   1.408       .  A
C1143      C1150   1.443       .  S
C1144      C1145   1.402       .  A
C1145      C1146   1.396       .  A
C1145      H1148   1.083       .  S
C1146      C1149   1.444       .  S
C1149      N1151   1.157       .  T
C1150      N1152   1.157       .  T
C1153      C1158   1.412       .  A
C1154      C1155   1.404       .  A
C1154      H1159   1.085   1_655  S
C1155      C1156   1.412       .  A
C1155      C1162   1.441       .  S
C1156      C1157   1.398       .  A
C1157      H1160   1.085       .  S
C1158      C1161   1.444       .  S
C1161      N1163   1.157       .  T
C1162      N1164   1.156       .  T
C1165      C1166   1.407       .  A
C1165      C1170   1.415       .  A
C1166      C1167   1.400       .  A
C1166      H1171   1.085       .  S
C1167      C1168   1.412       .  A
C1167      C1174   1.445       .  S
C1168      C1169   1.405       .  A
C1169      C1170   1.399       .  A
C1169      H1172   1.085       .  S
C1170      C1173   1.445       .  S
C1173      N1175   1.157       .  T
C1174      N1176   1.157       .  T
C1177      C1178   1.407       .  A
C1177      C1182   1.419       .  A
C1178      C1179   1.408       .  A
C1178      H1183   1.084       .  S
C1179      C1180   1.419       .  A
C1179      C1186   1.444       .  S
C1180      C1181   1.404       .  A
C1181      C1182   1.401       .  A
C1181      H1184   1.085       .  S
C1182      C1185   1.445       .  S
C1185      N1187   1.157       .  T
C1186      N1188   1.157       .  T
C1189      C1190   1.403       .  A
C1189      C1194   1.411       .  A
C1190      C1191   1.381       .  A
C1190      H1195   1.086       .  S
C1191      C1192   1.411       .  A
C1191      C1198   1.447       .  S
C1192      C1193   1.411       .  A
C1193      C1194   1.414       .  A
C1193      H1196   1.084       .  S
C1194      C1197   1.442       .  S
C1197      N1199   1.157       .  T
C1198      N1200   1.157       .  T
C1201      C1202   1.400       .  A
C1201      C1206   1.403       .  A
C1202      C1203   1.397       .  A
C1202      H1207   1.086       .  S
C1203      C1204   1.412       .  A
C1203      C1210   1.443       .  S
C1204      C1205   1.409       .  A
C1205      C1206   1.394       .  A
C1205      H1208   1.085       .  S
C1206      C1209   1.445       .  S
C1209      N1211   1.157       .  T
C1210      N1212   1.157       .  T
C1213      C1678   1.400   1_554  A
C1213      C1218   1.413       .  A
C1214      C1677   1.400       .  A
C1214      C1215   1.402   1_565  A
C1214      H1219   1.085       .  S
C1215      C1216   1.421       .  A
C1215      C1222   1.444       .  S
C1216      C1681   1.406       .  A
C1217      C1680   1.406   1_554  A
C1217      C1218   1.401   1_545  A
C1217      H1220   1.084       .  S
C1218      C1221   1.445       .  S
C1221      N1223   1.157       .  T
C1222      N1224   1.157       .  T
C1225      C1226   1.405       .  A
C1225      C1230   1.406       .  A
C1226      C1227   1.394       .  A
C1226      H1231   1.085       .  S
C1227      C1228   1.404       .  A
C1227      C1234   1.444       .  S
C1228      C1229   1.406       .  A
C1229      C1230   1.399       .  A
C1229      H1232   1.085       .  S
C1230      C1233   1.444       .  S
C1233      N1235   1.157       .  T
C1234      N1236   1.157       .  T
C1237      C1238   1.410       .  A
C1237      C1242   1.427       .  A
C1238      C1239   1.409       .  A
C1238      H1243   1.083       .  S
C1239      C1240   1.408       .  A
C1239      C1246   1.442       .  S
C1240      C1241   1.392       .  A
C1241      C1242   1.387       .  A
C1241      H1244   1.087       .  S
C1242      C1245   1.447       .  S
C1245      N1247   1.157       .  T
C1246      N1248   1.157       .  T
C1249      C1250   1.408       .  A
C1249      C1254   1.424       .  A
C1250      C1251   1.411       .  A
C1250      H1255   1.084       .  S
C1251      C1252   1.421       .  A
C1251      C1258   1.444       .  S
C1252      C1253   1.403       .  A
C1253      C1254   1.400       .  A
C1253      H1256   1.085       .  S
C1254      C1257   1.446       .  S
C1257      N1259   1.158       .  T
C1258      N1260   1.157       .  T
C1261      C1262   1.407       .  A
C1261      C1266   1.423       .  A
C1262      H1267   1.084       .  S
C1263      C1264   1.414   1_556  A
C1263      C1270   1.443       .  S
C1265      C1266   1.388       .  A
C1265      H1268   1.087       .  S
C1266      C1269   1.443       .  S
C1269      N1271   1.157       .  T
C1270      N1272   1.157       .  T
C1273      C1738   1.404   1_554  A
C1273      C1278   1.407       .  A
C1274      C1737   1.404       .  A
C1274      C1275   1.395       .  A
C1274      H1279   1.082       .  S
C1275      C1740   1.406       .  A
C1275      C1282   1.444       .  S
C1276      C1442   1.473       .  S
C1276      C1739   1.406       .  A
C1276      C1277   1.407   1_556  A
C1277      C1278   1.403       .  A
C1277      H1280   1.085       .  S
C1278      C1281   1.444       .  S
C1281      N1283   1.157       .  T
C1282      N1284   1.157       .  T
C1285      C1286   1.412       .  A
C1286      H1291   1.084       .  S
C1287      C1288   1.417       .  A
C1288      C1289   1.410       .  A
C1289      C1290   1.407       .  A
C1289      H1292   1.085       .  S
C1290      C1293   1.444       .  S
C1293      N1295   1.158       .  T
C1294      N1296   1.157       .  T
C1297      C1298   1.410       .  A
C1297      C1302   1.419       .  A
C1298      C1299   1.410       .  A
C1298      H1303   1.084       .  S
C1299      C1300   1.409       .  A
C1299      C1306   1.443       .  S
C1300      C1301   1.395       .  A
C1301      C1302   1.385       .  A
C1301      H1304   1.086       .  S
C1302      C1305   1.447       .  S
C1305      N1307   1.157       .  T
C1306      N1308   1.157       .  T
C1309      C1310   1.406       .  A
C1309      C1314   1.410       .  A
C1310      C1311   1.398       .  A
C1310      H1315   1.085       .  S
C1311      C1312   1.406       .  A
C1311      C1318   1.444       .  S
C1312      C1313   1.405       .  A
C1313      C1314   1.403       .  A
C1313      H1316   1.083       .  S
C1314      C1317   1.444       .  S
C1317      N1319   1.157       .  T
C1318      N1320   1.157       .  T
C1321      C1322   1.408       .  A
C1322      H1327   1.084       .  S
C1323      C1324   1.417       .  A
C1323      C1330   1.443       .  S
C1324      C1325   1.403       .  A
C1325      C1326   1.403       .  A
C1325      H1328   1.083       .  S
C1326      C1329   1.444       .  S
C1329      N1331   1.157       .  T
C1330      N1332   1.157       .  T
C1333      C1398   1.470   1_455  S
C1334      C1335   1.401       .  A
C1334      H1339   1.085       .  S
C1335      C1336   1.405       .  A
C1335      C1342   1.443       .  S
C1336      C1801   1.405   1_554  A
C1337      C1800   1.405       .  A
C1337      C1338   1.394       .  A
C1337      H1340   1.084       .  S
C1341      N1343   1.157       .  T
C1342      N1344   1.157       .  T
C1345      C1810   1.392       .  A
C1345      C1350   1.414   1_554  A
C1346      C1809   1.392       .  A
C1346      C1347   1.386       .  A
C1346      H1351   1.087       .  S
C1347      C1348   1.424       .  A
C1347      C1354   1.444       .  S
C1348      C1349   1.404       .  A
C1349      C1814   1.408       .  A
C1349      H1352   1.084       .  S
C1350      C1813   1.408       .  A
C1350      C1353   1.443       .  S
C1353      N1355   1.157       .  T
C1354      N1356   1.158       .  T
C1357      C1358   1.408       .  A
C1357      C1826   1.415       .  A
C1358      C1359   1.404       .  A
C1358      H1363   1.084       .  S
C1359      C1824   1.412       .  A
C1359      C1366   1.444       .  S
C1360      C1823   1.412   1_554  A
C1360      C1361   1.406       .  A
C1361      C1362   1.403       .  A
C1361      H1364   1.085       .  S
C1362      C1821   1.415   1_554  A
C1362      C1365   1.445       .  S
C1365      N1367   1.157       .  T
C1366      N1368   1.157       .  T
C1369      C1370   1.406       .  A
C1369      C1374   1.422       .  A
C1370      C1371   1.405       .  A
C1370      H1375   1.084       .  S
C1371      C1372   1.409       .  A
C1371      C1378   1.444       .  S
C1372      C1373   1.392       .  A
C1373      C1374   1.392       .  A
C1373      H1376   1.086       .  S
C1374      C1377   1.443       .  S
C1377      N1379   1.157       .  T
C1378      N1380   1.157       .  T
C1381      C1382   1.394       .  A
C1381      C1386   1.411       .  A
C1382      C1383   1.394       .  A
C1382      H1387   1.086       .  S
C1383      C1384   1.419       .  A
C1383      C1390   1.446       .  S
C1384      C1385   1.403       .  A
C1385      C1386   1.402       .  A
C1385      H1388   1.085       .  S
C1386      C1389   1.444       .  S
C1389      N1391   1.157       .  T
C1390      N1392   1.157       .  T
O1393      C1408   1.254       .  A
C1394      O1404   1.270       .  A
C1394      O1395   1.268       .  A
C1394      C1785   1.501       .  S
O1396      C1398   1.255       .  A
Al1397     O1405   1.893       .  S
Al1397     O1407   1.937       .  S
C1398      O1411   1.252       .  A
O1399      C1409   1.264       .  A
O1399     Al1401   1.897       .  S
O1400      C1413   1.271       .  A
O1400     Al1410   1.948       .  S
Al1401     O1414   1.889       .  S
Al1401     O1411   1.892       .  S
Al1401     O1406   1.783       .  S
O1402      C1409   1.266       .  A
O1402     Al1410   1.918       .  S
O1403      C1412   1.258       .  A
O1403     Al1410   1.914       .  S
O1404     Al1410   1.915       .  S
O1406     Al1410   1.777       .  S
O1407      C1408   1.268       .  A
C1408      C1845   1.461       .  S
C1409      C1836   1.461       .  S
C1412      C1821   1.491       .  S
C1413      O1414   1.256       .  A
C1413      C1812   1.482       .  S
O1415      C1430   1.258       .  A
C1416      O1426   1.272       .  A
C1416      O1417   1.277       .  A
C1416      C1749   1.511       .  S
O1417     Al1419   1.950       .  S
O1418      C1420   1.255       .  A
O1418     Al1419   1.870       .  S
Al1419     O1428   1.777       .  S
C1420      O1433   1.255       .  A
C1420      C1728   1.477       .  S
O1421      C1431   1.262       .  A
O1421     Al1423   1.929       .  S
O1422      C1435   1.273       .  A
O1422     Al1432   1.922       .  S
Al1423     O1436   1.896       .  S
Al1423     O1433   1.908       .  S
Al1423     O1428   1.791       .  S
O1424      C1431   1.252       .  A
O1424     Al1432   1.881       .  S
O1425      C1434   1.251       .  A
O1425     Al1432   1.903       .  S
O1426     Al1432   1.912       .  S
O1428     Al1432   1.786       .  S
O1429      C1430   1.265       .  A
C1430      C1776   1.471       .  S
C1431      C1761   1.483       .  S
C1434      C1824   1.488       .  S
C1435      O1436   1.267       .  A
C1435      C1737   1.467       .  S
O1437      C1452   1.257       .  A
C1438      O1448   1.272       .  A
C1438      O1439   1.264       .  A
C1438      C1713   1.505       .  S
O1440      C1442   1.257       .  A
Al1441     O1449   1.901       .  S
Al1441     O1451   1.920       .  S
C1442      O1455   1.252       .  A
O1443      C1453   1.265       .  A
O1443     Al1445   1.912       .  S
O1444      C1457   1.272       .  A
O1444     Al1454   1.954       .  S
Al1445     O1458   1.891       .  S
Al1445     O1455   1.895       .  S
Al1445     O1450   1.784       .  S
O1446      C1453   1.263       .  A
O1446     Al1454   1.902       .  S
O1447      C1456   1.255       .  A
O1447     Al1454   1.898       .  S
O1448     Al1454   1.937       .  S
O1450     Al1454   1.777       .  S
O1451      C1452   1.264       .  A
C1452      C1692   1.463       .  S
C1453      C1704   1.465       .  S
C1456      C1680   1.492       .  S
C1457      O1458   1.258       .  A
C1457      C1725   1.488   1_556  S
O1459      C1474   1.253       .  A
C1460      O1470   1.269       .  A
C1460      O1461   1.283       .  A
C1460      C1641   1.497       .  S
O1461     Al1463   1.970       .  S
O1462      C1464   1.253       .  A
O1462     Al1463   1.865       .  S
Al1463     O1472   1.773       .  S
C1464      O1477   1.252       .  A
C1464      C1809   1.472       .  S
O1465      C1475   1.253       .  A
O1465     Al1467   1.889       .  S
O1466      C1479   1.271       .  A
O1466     Al1476   1.913       .  S
Al1467     O1480   1.911       .  S
Al1467     O1477   1.896       .  S
Al1467     O1472   1.778       .  S
O1468      C1475   1.259       .  A
O1468     Al1476   1.916       .  S
O1469      C1478   1.251       .  A
O1469     Al1476   1.902       .  S
O1470     Al1476   1.878       .  S
O1472     Al1476   1.786       .  S
O1473      C1474   1.271       .  A
C1474      C1653   1.481       .  S
C1475      C1665   1.456       .  S
C1478      C1677   1.480       .  S
C1479      O1480   1.269       .  A
C1479      C1800   1.467       .  S
O1481      C1496   1.250       .  A
O1481     Al1489   1.838       .  S
C1482      O1492   1.273       .  A
C1482      O1483   1.283       .  A
C1482      C1752   1.508       .  S
O1483     Al1485   1.970       .  S
O1484      C1486   1.253       .  A
O1484     Al1485   1.879       .  S
Al1485     O1493   1.888       .  S
Al1485     O1495   1.948       .  S
Al1485     O1494   1.779       .  S
C1486      O1499   1.256       .  A
C1486      C1617   1.470       .  S
O1487      C1497   1.254       .  A
O1487     Al1489   1.899       .  S
O1488      C1501   1.269       .  A
O1488     Al1498   1.911       .  S
Al1489     O1502   1.920       .  S
Al1489     O1499   1.904       .  S
Al1489     O1494   1.783       .  S
O1490      C1497   1.255       .  A
O1490     Al1498   1.894       .  S
O1491      C1500   1.250       .  A
O1491     Al1498   1.898       .  S
O1492     Al1498   1.897       .  S
O1493      C1500   1.248       .  A
O1494     Al1498   1.791       .  S
O1495      C1496   1.269       .  A
C1496      C1701   1.493       .  S
C1497      C1689   1.465       .  S
C1500      C1629   1.485       .  S
C1501      O1502   1.271       .  A
C1501      C1608   1.471       .  S
O1503      C1518   1.257       .  A
O1503     Al1511   1.862       .  S
C1504      O1514   1.271       .  A
C1504      O1505   1.275       .  A
C1504      C1788   1.496       .  S
O1505     Al1507   1.945       .  S
O1506      C1508   1.251       .  A
O1506     Al1507   1.853       .  S
Al1507     O1515   1.889       .  S
Al1507     O1517   1.914       .  S
Al1507     O1516   1.773       .  S
C1508      O1521   1.260       .  A
C1508      C1593   1.477       .  S
O1509      C1519   1.261       .  A
O1509     Al1511   1.921       .  S
O1510      C1523   1.271       .  A
O1510     Al1520   1.917       .  S
Al1511     O1524   1.923       .  S
Al1511     O1521   1.928       .  S
Al1511     O1516   1.789       .  S
O1512      C1519   1.256       .  A
O1512     Al1520   1.888       .  S
O1513      C1522   1.251       .  A
O1513     Al1520   1.902       .  S
O1514     Al1520   1.903       .  S
O1515      C1522   1.249       .  A
O1516     Al1520   1.780       .  S
O1517      C1518   1.264       .  A
C1518      C1668   1.474       .  S
C1519      C1656   1.478       .  S
C1522      C1632   1.482       .  S
C1523      O1524   1.271       .  A
C1523      C1584   1.470       .  S
O1525      C1540   1.256       .  A
O1525     Al1533   1.855       .  S
C1526      O1536   1.269       .  A
C1526      O1527   1.271       .  A
C1526      C1716   1.503       .  S
O1527     Al1529   1.939       .  S
O1528      C1530   1.254       .  A
O1528     Al1529   1.878       .  S
Al1529     O1537   1.889       .  S
Al1529     O1539   1.935       .  S
Al1529     O1538   1.780       .  S
C1530      O1543   1.258       .  A
C1530      C1605   1.471       .  S
O1531      C1541   1.261       .  A
O1531     Al1533   1.906       .  S
O1532      C1545   1.267       .  A
O1532     Al1542   1.918       .  S
Al1533     O1546   1.910       .  S
Al1533     O1543   1.917       .  S
Al1533     O1538   1.781       .  S
O1534      C1541   1.261       .  A
O1534     Al1542   1.913       .  S
O1535      C1544   1.257       .  A
O1535     Al1542   1.910       .  S
O1536     Al1542   1.903       .  S
O1537      C1544   1.254       .  A
O1538     Al1542   1.783       .  S
O1539      C1540   1.266       .  A
C1540      C1764   1.467       .  S
C1541      C1773   1.477       .  S
C1544      C1569   1.482       .  S
C1545      O1546   1.265       .  A
C1545      C1620   1.468       .  S
O1547      C1562   1.276       .  A
O1547     Al1555   1.919       .  S
C1548      O1558   1.285       .  A
C1548      O1549   1.282       .  A
C1548      C1644   1.495       .  S
O1549     Al1551   1.907       .  S
O1550      C1552   1.246       .  A
O1550     Al1551   1.880       .  S
Al1551     O1559   1.879       .  S
Al1551     O1561   1.922       .  S
Al1551     O1560   1.775       .  S
C1552      O1565   1.254       .  A
C1552      C1581   1.482       .  S
O1553      C1563   1.258       .  A
O1553     Al1555   1.902       .  S
O1554      C1567   1.263       .  A
O1554     Al1564   1.919       .  S
Al1555     O1568   1.883       .  S
Al1555     O1565   1.928       .  S
Al1555     O1560   1.779       .  S
O1556      C1563   1.254       .  A
O1556     Al1564   1.875       .  S
O1557      C1566   1.245       .  A
O1557     Al1564   1.904       .  S
O1558     Al1564   1.955       .  S
O1559      C1566   1.242       .  A
O1560     Al1564   1.775       .  S
O1561      C1562   1.281       .  A
C1562      C1833   1.483       .  S
C1563      C1848   1.477       .  S
C1566      C1572   1.474       .  S
C1567      O1568   1.260       .  A
C1567      C1596   1.475       .  S
C1569      C1570   1.408       .  A
C1569      C1574   1.414       .  A
C1570      C1571   1.405   1_545  A
C1570      H1575   1.084       .  S
C1571      C1572   1.408       .  A
C1571      C1578   1.443       .  S
C1572      C1573   1.402       .  A
C1573      C1574   1.396   1_565  A
C1573      H1576   1.085       .  S
C1574      C1577   1.445       .  S
C1577      N1579   1.157       .  T
C1578      N1580   1.157       .  T
C1581      C1582   1.407       .  A
C1581      C1586   1.410       .  A
C1582      C1583   1.396       .  A
C1582      H1587   1.085       .  S
C1583      C1584   1.405       .  A
C1583      C1590   1.446       .  S
C1584      C1585   1.407       .  A
C1585      C1586   1.408       .  A
C1585      H1588   1.084       .  S
C1586      C1589   1.442       .  S
C1589      N1591   1.157       .  T
C1590      N1592   1.157       .  T
C1593      C1598   1.409       .  A
C1594      C1595   1.387   1_455  A
C1594      H1599   1.085       .  S
C1595      C1596   1.409       .  A
C1595      C1602   1.445       .  S
C1596      C1597   1.410       .  A
C1597      H1600   1.084       .  S
C1598      C1601   1.442       .  S
C1601      N1603   1.157       .  T
C1602      N1604   1.157       .  T
C1605      C1606   1.407       .  A
C1605      C1610   1.407       .  A
C1606      C1607   1.405       .  A
C1606      H1611   1.085       .  S
C1607      C1608   1.408       .  A
C1607      C1614   1.443       .  S
C1608      C1609   1.402       .  A
C1609      C1610   1.396       .  A
C1609      H1612   1.083       .  S
C1610      C1613   1.444       .  S
C1613      N1615   1.157       .  T
C1614      N1616   1.157       .  T
C1617      C1622   1.412       .  A
C1618      C1619   1.404       .  A
C1618      H1623   1.085   1_655  S
C1619      C1620   1.412       .  A
C1619      C1626   1.441       .  S
C1620      C1621   1.398       .  A
C1621      H1624   1.085       .  S
C1622      C1625   1.444       .  S
C1625      N1627   1.157       .  T
C1626      N1628   1.156       .  T
C1629      C1630   1.407       .  A
C1629      C1634   1.415       .  A
C1630      C1631   1.400       .  A
C1630      H1635   1.085       .  S
C1631      C1632   1.412       .  A
C1631      C1638   1.445       .  S
C1632      C1633   1.405       .  A
C1633      C1634   1.399       .  A
C1633      H1636   1.085       .  S
C1634      C1637   1.445       .  S
C1637      N1639   1.157       .  T
C1638      N1640   1.157       .  T
C1641      C1642   1.407       .  A
C1641      C1646   1.419       .  A
C1642      C1643   1.408       .  A
C1642      H1647   1.084       .  S
C1643      C1644   1.419       .  A
C1643      C1650   1.444       .  S
C1644      C1645   1.404       .  A
C1645      C1646   1.401       .  A
C1645      H1648   1.085       .  S
C1646      C1649   1.445       .  S
C1649      N1651   1.157       .  T
C1650      N1652   1.157       .  T
C1653      C1654   1.403       .  A
C1653      C1658   1.411       .  A
C1654      C1655   1.381       .  A
C1654      H1659   1.086       .  S
C1655      C1656   1.411       .  A
C1655      C1662   1.447       .  S
C1656      C1657   1.411       .  A
C1657      C1658   1.414       .  A
C1657      H1660   1.084       .  S
C1658      C1661   1.442       .  S
C1661      N1663   1.157       .  T
C1662      N1664   1.157       .  T
C1665      C1666   1.400       .  A
C1665      C1670   1.403       .  A
C1666      C1667   1.397       .  A
C1666      H1671   1.086       .  S
C1667      C1668   1.412       .  A
C1667      C1674   1.443       .  S
C1668      C1669   1.409       .  A
C1669      C1670   1.394       .  A
C1669      H1672   1.085       .  S
C1670      C1673   1.445       .  S
C1673      N1675   1.157       .  T
C1674      N1676   1.157       .  T
C1677      C1682   1.413       .  A
C1678      C1679   1.402   1_565  A
C1678      H1683   1.085       .  S
C1679      C1680   1.421       .  A
C1679      C1686   1.444       .  S
C1681      C1682   1.401   1_545  A
C1681      H1684   1.084       .  S
C1682      C1685   1.445       .  S
C1685      N1687   1.157       .  T
C1686      N1688   1.157       .  T
C1689      C1690   1.405       .  A
C1689      C1694   1.406       .  A
C1690      C1691   1.394       .  A
C1690      H1695   1.085       .  S
C1691      C1692   1.404       .  A
C1691      C1698   1.444       .  S
C1692      C1693   1.406       .  A
C1693      C1694   1.399       .  A
C1693      H1696   1.085       .  S
C1694      C1697   1.444       .  S
C1697      N1699   1.157       .  T
C1698      N1700   1.157       .  T
C1701      C1702   1.410       .  A
C1701      C1706   1.427       .  A
C1702      C1703   1.409       .  A
C1702      H1707   1.083       .  S
C1703      C1704   1.408       .  A
C1703      C1710   1.442       .  S
C1704      C1705   1.392       .  A
C1705      C1706   1.387       .  A
C1705      H1708   1.087       .  S
C1706      C1709   1.447       .  S
C1709      N1711   1.157       .  T
C1710      N1712   1.157       .  T
C1713      C1714   1.408       .  A
C1713      C1718   1.424       .  A
C1714      C1715   1.411       .  A
C1714      H1719   1.084       .  S
C1715      C1716   1.421       .  A
C1715      C1722   1.444       .  S
C1716      C1717   1.403       .  A
C1717      C1718   1.400       .  A
C1717      H1720   1.085       .  S
C1718      C1721   1.446       .  S
C1721      N1723   1.158       .  T
C1722      N1724   1.157       .  T
C1725      C1726   1.407   1_554  A
C1725      C1730   1.423       .  A
C1726      H1731   1.084       .  S
C1727      C1728   1.414       .  A
C1727      C1734   1.443       .  S
C1729      C1730   1.388       .  A
C1729      H1732   1.087       .  S
C1730      C1733   1.443       .  S
C1733      N1735   1.157       .  T
C1734      N1736   1.157       .  T
C1737      C1742   1.407       .  A
C1738      C1739   1.395       .  A
C1738      H1743   1.082       .  S
C1739      C1746   1.444       .  S
C1740      C1741   1.407       .  A
C1741      C1742   1.403       .  A
C1741      H1744   1.085       .  S
C1742      C1745   1.444       .  S
C1745      N1747   1.157       .  T
C1746      N1748   1.157       .  T
C1749      C1750   1.412       .  A
C1750      H1755   1.084       .  S
C1751      C1752   1.417       .  A
C1752      C1753   1.410       .  A
C1753      C1754   1.407       .  A
C1753      H1756   1.085       .  S
C1754      C1757   1.444       .  S
C1757      N1759   1.158       .  T
C1758      N1760   1.157       .  T
C1761      C1762   1.410       .  A
C1761      C1766   1.419       .  A
C1762      C1763   1.410       .  A
C1762      H1767   1.084       .  S
C1763      C1764   1.409       .  A
C1763      C1770   1.443       .  S
C1764      C1765   1.395       .  A
C1765      C1766   1.385       .  A
C1765      H1768   1.086       .  S
C1766      C1769   1.447       .  S
C1769      N1771   1.157       .  T
C1770      N1772   1.157       .  T
C1773      C1774   1.406       .  A
C1773      C1778   1.410       .  A
C1774      C1775   1.398       .  A
C1774      H1779   1.085       .  S
C1775      C1776   1.406       .  A
C1775      C1782   1.444       .  S
C1776      C1777   1.405       .  A
C1777      C1778   1.403       .  A
C1777      H1780   1.083       .  S
C1778      C1781   1.444       .  S
C1781      N1783   1.157       .  T
C1782      N1784   1.157       .  T
C1785      C1786   1.408       .  A
C1786      H1791   1.084       .  S
C1787      C1788   1.417       .  A
C1787      C1794   1.443       .  S
C1788      C1789   1.403       .  A
C1789      C1790   1.403       .  A
C1789      H1792   1.083       .  S
C1790      C1793   1.444       .  S
C1793      N1795   1.157       .  T
C1794      N1796   1.157       .  T
C1798      C1799   1.401       .  A
C1798      H1803   1.085       .  S
C1799      C1800   1.405       .  A
C1799      C1806   1.443       .  S
C1801      C1802   1.394       .  A
C1801      H1804   1.084       .  S
C1805      N1807   1.157       .  T
C1806      N1808   1.157       .  T
C1809      C1814   1.414       .  A
C1810      C1811   1.386       .  A
C1810      H1815   1.087       .  S
C1811      C1812   1.424   1_554  A
C1811      C1818   1.444       .  S
C1812      C1813   1.404       .  A
C1813      H1816   1.084       .  S
C1814      C1817   1.443       .  S
C1817      N1819   1.157       .  T
C1818      N1820   1.158       .  T
C1821      C1822   1.408       .  A
C1822      C1823   1.404       .  A
C1822      H1827   1.084       .  S
C1823      C1830   1.444       .  S
C1824      C1825   1.406       .  A
C1825      C1826   1.403       .  A
C1825      H1828   1.085       .  S
C1826      C1829   1.445       .  S
C1829      N1831   1.157       .  T
C1830      N1832   1.157       .  T
C1833      C1834   1.406       .  A
C1833      C1838   1.422       .  A
C1834      C1835   1.405       .  A
C1834      H1839   1.084       .  S
C1835      C1836   1.409       .  A
C1835      C1842   1.444       .  S
C1836      C1837   1.392       .  A
C1837      C1838   1.392       .  A
C1837      H1840   1.086       .  S
C1838      C1841   1.443       .  S
C1841      N1843   1.157       .  T
C1842      N1844   1.157       .  T
C1845      C1846   1.394       .  A
C1845      C1850   1.411       .  A
C1846      C1847   1.394       .  A
C1846      H1851   1.086       .  S
C1847      C1848   1.419       .  A
C1847      C1854   1.446       .  S
C1848      C1849   1.403       .  A
C1849      C1850   1.402       .  A
C1849      H1852   1.085       .  S
C1850      C1853   1.444       .  S
C1853      N1855   1.157       .  T
C1854      N1856   1.157       .  T
