geometry optimzed in LAMMPS
_audit_creation_date              2020-12-01 
_audit_creation_method            'lammps2cif' 
_symmetry_space_group_name_H-M    'P1' 
_symmetry_Int_Tables_number       1 
_symmetry_cell_setting            triclinic 
loop_ 
_symmetry_equiv_pos_as_xyz 
  x,y,z 
_cell_length_a                    34.65852241 
_cell_length_b                    66.72081189767316 
_cell_length_c                    34.53850859160118 
_cell_angle_alpha                 90.14728721335578 
_cell_angle_beta                  90.2155045483974 
_cell_angle_gamma                 89.97632141540599 
loop_ 
_atom_site_label 
_atom_site_type_symbol 
_atom_site_fract_x 
_atom_site_fract_y 
_atom_site_fract_z 
_atom_site_charge 
Zn1        Zn  0.24628237  0.88615439  0.43763413     1.49700
Zn2        Zn  0.18188604  0.88894505  0.50295306     1.49400
Zn3        Zn  0.17414701  0.85757867  0.43247163     1.49100
Zn4        Zn  0.23858721  0.85054853  0.49770739     1.49500
O5          O  0.21008139  0.87082113  0.46802459    -1.84000
O6          O  0.24113727  0.91549272  0.44759145    -0.74600
O7          O  0.12401184  0.88471057  0.49588117    -0.74400
O8          O  0.18931385  0.86064938  0.37581156    -0.74000
O9          O  0.19552628  0.91816553  0.49223324    -0.74600
O10         O  0.23878870  0.88158207  0.38108396    -0.74200
O11         O  0.11959863  0.86704386  0.44133209    -0.74800
O12         O  0.21373291  0.82292543  0.49214580    -0.74200
O13         O  0.19682256  0.88374077  0.55920007    -0.75000
O14         O  0.17056487  0.82849934  0.44572639    -0.74400
O15         O  0.23577691  0.85747218  0.55391594    -0.74800
O16         O  0.29636931  0.85110532  0.48613917    -0.74700
O17         O  0.30055320  0.87857847  0.45021553    -0.74500
C18         C  0.22030532  0.92615615  0.46980812     0.77300
C19         C  0.10376097  0.87619213  0.46956311     0.77800
C20         C  0.21592973  0.87112256  0.36044585     0.76700
C21         C  0.18601333  0.81692905  0.47058124     0.77100
C22         C  0.21906541  0.87070613  0.57447211     0.78200
C23         C  0.31646574  0.86435034  0.46878348     0.77300
Zn24       Zn  0.73496647  0.85056198  0.47279647     1.49700
Zn25       Zn  0.68116202  0.89044585  0.46624027     1.49400
Zn26       Zn  0.67263615  0.86155332  0.53884950     1.49100
Zn27       Zn  0.74647471  0.88753183  0.53083579     1.49500
O28         O  0.70896104  0.87237876  0.50155091    -1.84000
O29         O  0.72819450  0.85558234  0.41523469    -0.74600
O30         O  0.62308175  0.88677629  0.47282131    -0.74400
O31         O  0.66523921  0.83255040  0.52785113    -0.74000
O32         O  0.69591583  0.88433700  0.41048284    -0.74600
O33         O  0.70966120  0.82311297  0.48509776    -0.74200
O34         O  0.61966659  0.87238322  0.53066105    -0.74800
O35         O  0.74263149  0.88274390  0.58776224    -0.74200
O36         O  0.69501033  0.91965759  0.47690884    -0.75000
O37         O  0.68892864  0.86519158  0.59502824    -0.74400
O38         O  0.74065940  0.91691846  0.52182633    -0.74800
O39         O  0.79954755  0.87966959  0.51585847    -0.74700
O40         O  0.79417678  0.85161863  0.48135690    -0.74500
C41         C  0.71395093  0.86973543  0.39490231     0.77300
C42         C  0.60336282  0.87996236  0.50105618     0.77800
C43         C  0.68050152  0.81922423  0.50646382     0.76700
C44         C  0.71843639  0.87389305  0.60934615     0.77100
C45         C  0.71965302  0.92762164  0.49977981     0.78200
C46         C  0.81486853  0.86513796  0.49765668     0.77300
Zn47       Zn  0.25052510  0.11438474  0.51881875     1.49700
Zn48       Zn  0.31646934  0.11164237  0.45532000     1.49400
Zn49       Zn  0.26117034  0.15059554  0.45772034     1.49100
Zn50       Zn  0.32127285  0.14243614  0.52671570     1.49500
O51         O  0.28722919  0.12981895  0.48903537    -1.84000
O52         O  0.25544461  0.08475731  0.50922548    -0.74600
O53         O  0.30303152  0.11691785  0.39920587    -0.74400
O54         O  0.20215099  0.14836383  0.46418888    -0.74000
O55         O  0.30189677  0.08248624  0.46533587    -0.74600
O56         O  0.19796871  0.12169363  0.50233818    -0.74200
O57         O  0.27042337  0.14561146  0.40048600    -0.74800
O58         O  0.31932471  0.17223076  0.52265388    -0.74200
O59         O  0.37436447  0.11653537  0.46209385    -0.75000
O60         O  0.28266829  0.17855887  0.47105541    -0.74400
O61         O  0.37553279  0.13613043  0.51421348    -0.74800
O62         O  0.30990223  0.13565486  0.58223206    -0.74700
O63         O  0.25410206  0.11971880  0.57609936    -0.74500
C64         C  0.27642566  0.07429725  0.48674204     0.77300
C65         C  0.28560993  0.13112875  0.38181219     0.77800
C66         C  0.18208368  0.13509469  0.48166322     0.76700
C67         C  0.30516031  0.18440936  0.49823280     0.77100
C68         C  0.39288545  0.12686306  0.48721129     0.78200
C69         C  0.28013184  0.12770595  0.59711200     0.77300
Zn70       Zn  0.81867790  0.14474252  0.43940429     1.49700
Zn71       Zn  0.75838469  0.15096174  0.50731015     1.49400
Zn72       Zn  0.75004774  0.11451917  0.44882591     1.49100
Zn73       Zn  0.81768321  0.11344818  0.51089234     1.49500
O74         O  0.78660021  0.13089593  0.47707095    -1.84000
O75         O  0.82042952  0.17439094  0.45003555    -0.74600
O76         O  0.70117102  0.15096898  0.49424758    -0.74400
O77         O  0.75585424  0.11695836  0.39202200    -0.74000
O78         O  0.78133266  0.17868394  0.50013619    -0.74600
O79         O  0.80107258  0.14003142  0.38415904    -0.74200
O80         O  0.69658516  0.12329530  0.45877119    -0.74800
O81         O  0.80249930  0.08397689  0.50407098    -0.74200
O82         O  0.76247922  0.14429220  0.56377593    -0.75000
O83         O  0.75381720  0.08567774  0.46237322    -0.74400
O84         O  0.80661504  0.12016982  0.56753857    -0.74800
O85         O  0.87505898  0.11680588  0.49813686    -0.74700
O86         O  0.87340854  0.13582423  0.44528748    -0.74500
C87         C  0.80567452  0.18557248  0.47597688     0.77300
C88         C  0.68103261  0.13813441  0.47567233     0.77800
C89         C  0.77585244  0.12811454  0.37020431     0.76700
C90         C  0.77582141  0.07553458  0.48433476     0.77100
C91         C  0.78278148  0.13215948  0.58368473     0.78200
C92         C  0.89218638  0.12582028  0.47042581     0.77300
Zn93       Zn  0.30929816  0.88408872  0.00430011     1.49700
Zn94       Zn  0.24335854  0.88534559  0.94033506     1.49400
Zn95       Zn  0.31259110  0.85475385  0.93156557     1.49100
Zn96       Zn  0.24784411  0.84744711  0.99609565     1.49500
O97         O  0.27831171  0.86785678  0.96836973    -1.84000
O98         O  0.29930655  0.91391303  0.99750921    -0.74600
O99         O  0.24971258  0.88286209  0.88253565    -0.74400
O100        O  0.36849884  0.86118893  0.94232364    -0.74000
O101        O  0.25083180  0.91401999  0.95538005    -0.74600
O102        O  0.36656358  0.87861469  0.99725758    -0.74200
O103        O  0.29797773  0.86119651  0.87624729    -0.74800
O104        O  0.27097254  0.81951638  0.98734006    -0.74200
O105        O  0.18876945  0.87872342  0.95312342    -0.75000
O106        O  0.31198891  0.82510844  0.93928364    -0.74400
O107        O  0.18980237  0.84940693  0.98342947    -0.74800
O108        O  0.25087243  0.85303638  0.05350149    -0.74700
O109        O  0.29354215  0.87774713  0.05915504    -0.74500
C110        C  0.27380315  0.92328202  0.97796180     0.77300
C111        C  0.27229888  0.87254936  0.86137341     0.77800
C112        C  0.38549617  0.86957057  0.97082903     0.76700
C113        C  0.29671447  0.81333107  0.96373044     0.77100
C114        C  0.17120154  0.86416770  0.96894566     0.78200
C115        C  0.26967931  0.86551056  0.07421875     0.77300
Zn116      Zn  0.80913863  0.85629749  0.96504854     1.49700
Zn117      Zn  0.80748594  0.88878416  0.03517573     1.49400
Zn118      Zn  0.73730383  0.88453960  0.97648986     1.49100
Zn119      Zn  0.75232613  0.84889441  0.03398039     1.49500
O120        O  0.77714588  0.86979730  0.00323802    -1.84000
O121        O  0.86422758  0.86351311  0.97358847    -0.74600
O122        O  0.79397692  0.91818230  0.02142947    -0.74400
O123        O  0.73899656  0.88007457  0.91908339    -0.74000
O124        O  0.86541437  0.88414108  0.02451433    -0.74600
O125        O  0.79326825  0.86293828  0.91040812    -0.74200
O126        O  0.74146916  0.91399668  0.98527559    -0.74800
O127        O  0.69403774  0.84646037  0.02190086    -0.74200
O128        O  0.79401358  0.88397095  0.09290130    -0.75000
O129        O  0.68566622  0.87604362  0.99358848    -0.74400
O130        O  0.75703962  0.85665619  0.08968571    -0.74800
O131        O  0.78072331  0.82234644  0.02837447    -0.74700
O132        O  0.81009410  0.82638991  0.97190493    -0.74500
C133        C  0.88267527  0.87380225  0.99852710     0.77300
C134        C  0.76557515  0.92539597  0.00224388     0.77800
C135        C  0.76366155  0.87187826  0.89696389     0.76700
C136        C  0.67205859  0.86019152  0.00846867     0.77100
C137        C  0.77356385  0.87042823  0.10923089     0.78200
C138        C  0.80165761  0.81562181  0.00099983     0.77300
Zn139      Zn  0.18743530  0.13973103  0.95235832     1.49700
Zn140      Zn  0.26118892  0.11228578  0.96311555     1.49400
Zn141      Zn  0.24755486  0.14933496  0.01928840     1.49100
Zn142      Zn  0.19319318  0.10967698  0.02388066     1.49500
O143        O  0.22221565  0.12773826  0.99003753    -1.84000
O144        O  0.20502757  0.13516120  0.89750414    -0.74600
O145        O  0.31377885  0.12173959  0.97627500    -0.74400
O146        O  0.22091542  0.17630114  0.01070456    -0.74000
O147        O  0.25707401  0.11617783  0.90578016    -0.74600
O148        O  0.18253803  0.16923741  0.96102364    -0.74200
O149        O  0.30525703  0.15063378  0.00746833    -0.74800
O150        O  0.20925006  0.11508030  0.07987644    -0.74200
O151        O  0.25847521  0.08299950  0.97583211    -0.75000
O152        O  0.24429280  0.14297537  0.07581084    -0.74400
O153        O  0.20616663  0.08035035  0.01261864    -0.74800
O154        O  0.13514816  0.11427191  0.01653333    -0.74700
O155        O  0.13309688  0.13070192  0.96052185    -0.74500
C156        C  0.23402688  0.12579679  0.88389969     0.77300
C157        C  0.32710118  0.13752473  0.99189059     0.77800
C158        C  0.19540212  0.18158317  0.98600551     0.76700
C159        C  0.22946164  0.12890371  0.09564722     0.77100
C160        C  0.23451022  0.07244544  0.99470598     0.78200
C161        C  0.11615239  0.12253959  0.98906863     0.77300
Zn162      Zn  0.68983316  0.11306439  0.00998363     1.49700
Zn163      Zn  0.68842639  0.14448918  0.94040057     1.49400
Zn164      Zn  0.74877651  0.15115991  0.00863620     1.49100
Zn165      Zn  0.75935154  0.11456995  0.95139872     1.49500
O166        O  0.72136453  0.13083866  0.97779678    -1.84000
O167        O  0.63319787  0.11905486  0.00161599    -0.74600
O168        O  0.68537663  0.17401285  0.95246611    -0.74400
O169        O  0.74297994  0.14360703  0.06432711    -0.74000
O170        O  0.63290438  0.13576699  0.94598637    -0.74600
O171        O  0.70299605  0.11755733  0.06651200    -0.74200
O172        O  0.72522055  0.17912604  0.00192355    -0.74800
O173        O  0.81224170  0.12086954  0.97112203    -0.74200
O174        O  0.70798692  0.14052382  0.88556232    -0.75000
O175        O  0.80723978  0.15070191  0.99958562    -0.74400
O176        O  0.75801686  0.12011783  0.89415173    -0.74800
O177        O  0.75138980  0.08502593  0.96008249    -0.74700
O178        O  0.69999679  0.08344888  0.99810449    -0.74500
C179        C  0.61501268  0.12753715  0.97396727     0.77300
C180        C  0.69967050  0.18553039  0.97824098     0.77800
C181        C  0.72500151  0.13021921  0.08330939     0.76700
C182        C  0.82751135  0.13595454  0.98770269     0.77100
C183        C  0.73633697  0.13051194  0.87206231     0.78200
C184        C  0.72674436  0.07485891  0.97891166     0.77300
Zn185      Zn  0.49109138  0.34987495  0.49119870     1.49700
Zn186      Zn  0.50212204  0.38745169  0.54711206     1.49400
Zn187      Zn  0.43664071  0.38881724  0.48237835     1.49100
Zn188      Zn  0.42830532  0.36079180  0.55612036     1.49500
O189        O  0.46467930  0.37167238  0.51888183    -1.84000
O190        O  0.54903287  0.34924166  0.50355390    -0.74600
O191        O  0.49958697  0.41646984  0.53253493    -0.74400
O192        O  0.45279090  0.38234751  0.42739605    -0.74000
O193        O  0.55499157  0.37808346  0.53542743    -0.74600
O194        O  0.48988212  0.35543364  0.43420926    -0.74200
O195        O  0.44999928  0.41824761  0.49152153    -0.74800
O196        O  0.37537008  0.37246209  0.54765315    -0.74200
O197        O  0.49640791  0.38432914  0.60455312    -0.75000
O198        O  0.37864981  0.38472675  0.48782003    -0.74400
O199        O  0.44579914  0.36442727  0.61202333    -0.74800
O200        O  0.42088691  0.33143352  0.54588885    -0.74700
O201        O  0.46281292  0.32328685  0.49983000    -0.74500
C202        C  0.56986786  0.36278358  0.51940955     0.77300
C203        C  0.47712204  0.42654521  0.51082763     0.77800
C204        C  0.47438802  0.36878453  0.41298902     0.76700
C205        C  0.35912340  0.37922762  0.51718666     0.77100
C206        C  0.47388013  0.37437995  0.62627265     0.78200
C207        C  0.43504604  0.31868557  0.52240187     0.77300
Zn208      Zn  0.92748064  0.35900317  0.54947525     1.49700
Zn209      Zn  0.99935647  0.38684160  0.54572350     1.49400
Zn210      Zn  0.99356499  0.35081943  0.48573372     1.49100
Zn211      Zn  0.93562565  0.38885260  0.47882511     1.49500
O212        O  0.96418394  0.37131588  0.51443677    -1.84000
O213        O  0.94311060  0.36097946  0.60596679    -0.74600
O214        O  0.05348779  0.37895508  0.53528103    -0.74400
O215        O  0.96720822  0.32342740  0.49144239    -0.74000
O216        O  0.99150753  0.38258675  0.60261749    -0.74600
O217        O  0.92262418  0.33013433  0.53588781    -0.74200
O218        O  0.05161334  0.35129755  0.49938141    -0.74800
O219        O  0.95349543  0.38382389  0.42369105    -0.74200
O220        O  0.99502963  0.41587458  0.53366341    -0.75000
O221        O  0.99291966  0.35771745  0.42927810    -0.74400
O222        O  0.94745029  0.41827001  0.49052335    -0.74800
O223        O  0.87751656  0.38396378  0.48309080    -0.74700
O224        O  0.87392021  0.37001660  0.54147126    -0.74500
C225        C  0.96929754  0.37141426  0.62231935     0.77300
C226        C  0.07055922  0.36471496  0.51786756     0.77800
C227        C  0.93866950  0.31805559  0.51237956     0.76700
C228        C  0.97675575  0.37115988  0.40877579     0.77100
C229        C  0.97333674  0.42632288  0.51186066     0.78200
C230        C  0.85778546  0.37745445  0.51156698     0.77300
Zn231      Zn  0.98634214  0.61609080  0.53574252     1.49700
Zn232      Zn  0.00070391  0.65126866  0.47493596     1.49400
Zn233      Zn  0.05829777  0.64444532  0.54635918     1.49100
Zn234      Zn  0.05615389  0.61192336  0.47808019     1.49500
O235        O  0.02543343  0.63105147  0.50836509    -1.84000
O236        O  0.93455120  0.62535305  0.52094061    -0.74600
O237        O  0.02554016  0.67896656  0.48330364    -0.74400
O238        O  0.04123491  0.63975634  0.60162837    -0.74000
O239        O  0.94172153  0.65193994  0.48297702    -0.74600
O240        O  0.98889537  0.62107072  0.59268750    -0.74200
O241        O  0.06036537  0.67388814  0.53646459    -0.74800
O242        O  0.11337447  0.61641246  0.48773586    -0.74200
O243        O  0.00903785  0.64319348  0.41926246    -0.75000
O244        O  0.11341553  0.63655935  0.53918976    -0.74400
O245        O  0.04414174  0.61521461  0.42075607    -0.74800
O246        O  0.04323757  0.58316902  0.49172615    -0.74700
O247        O  0.98941639  0.58641082  0.52589938    -0.74500
C248        C  0.92034284  0.63975621  0.50167467     0.77300
C249        C  0.04867641  0.68535067  0.50949535     0.77800
C250        C  0.01189625  0.63056202  0.61480350     0.76700
C251        C  0.13130060  0.62644254  0.51365828     0.77100
C252        C  0.02548766  0.62857797  0.40208721     0.78200
C253        C  0.01448287  0.57551189  0.50916704     0.77300
Zn254      Zn  0.49186133  0.61337655  0.54563728     1.49700
Zn255      Zn  0.49679457  0.65247480  0.49308400     1.49400
Zn256      Zn  0.56308945  0.64188552  0.55516922     1.49100
Zn257      Zn  0.55490998  0.61476681  0.48003720     1.49500
O258        O  0.52661984  0.63077456  0.51807359    -1.84000
O259        O  0.43790298  0.62028749  0.53313034    -0.74600
O260        O  0.52062069  0.67992579  0.50529830    -0.74400
O261        O  0.54757906  0.63618482  0.61083573    -0.74000
O262        O  0.43911554  0.65056738  0.50635896    -0.74600
O263        O  0.49787373  0.61559845  0.60314125    -0.74200
O264        O  0.56754383  0.67151984  0.54631708    -0.74800
O265        O  0.61224301  0.62000584  0.48494653    -0.74200
O266        O  0.49957608  0.64895726  0.43463838    -0.75000
O267        O  0.61708628  0.63224716  0.54474279    -0.74400
O268        O  0.53846182  0.62280178  0.42638501    -0.74800
O269        O  0.54408674  0.58471077  0.48577610    -0.74700
O270        O  0.49809589  0.58489740  0.53030033    -0.74500
C271        C  0.42061194  0.63542979  0.51920858     0.77300
C272        C  0.55020037  0.68451813  0.52566379     0.77800
C273        C  0.52076333  0.62536251  0.62499361     0.76700
C274        C  0.63255818  0.62612714  0.51345168     0.77100
C275        C  0.51675727  0.63647566  0.41257557     0.78200
C276        C  0.51939951  0.57551608  0.50653134     0.77300
Zn277      Zn  0.99759699  0.38272951  0.04691388     1.49700
Zn278      Zn  0.07060453  0.35498646  0.05138477     1.49400
Zn279      Zn  0.00650468  0.34686750  0.98652957     1.49100
Zn280      Zn  0.06092433  0.38650662  0.98043097     1.49500
O281        O  0.03417768  0.36781538  0.01579592    -1.84000
O282        O  0.01003840  0.38133576  0.10303911    -0.74600
O283        O  0.07255964  0.32538363  0.04213355    -0.74400
O284        O  0.94928574  0.34649680  0.99956171    -0.74000
O285        O  0.05960153  0.36055458  0.10852472    -0.74600
O286        O  0.94431637  0.37198703  0.04089364    -0.74200
O287        O  0.03130076  0.31944930  0.99416307    -0.74800
O288        O  0.04673902  0.37955978  0.92423624    -0.74200
O289        O  0.12424125  0.36363217  0.03843688    -0.75000
O290        O  0.00899092  0.35280250  0.92975796    -0.74400
O291        O  0.11981740  0.38436917  0.98815629    -0.74800
O292        O  0.04320523  0.41555197  0.98977021    -0.74700
O293        O  0.99646169  0.41172619  0.03283698    -0.74500
C294        C  0.03423816  0.37189890  0.12383406     0.77300
C295        C  0.05752312  0.31349479  0.01748507     0.77800
C296        C  0.92920042  0.35788753  0.02127343     0.76700
C297        C  0.02546912  0.36598434  0.90901119     0.77100
C298        C  0.13996305  0.37443477  0.01259359     0.78200
C299        C  0.01637226  0.42288081  0.01079544     0.77300
Zn300      Zn  0.57093714  0.35866408  0.05613732     1.49700
Zn301      Zn  0.50219681  0.38803954  0.04787796     1.49400
Zn302      Zn  0.56753960  0.38745363  0.98346074     1.49100
Zn303      Zn  0.50741239  0.35026312  0.99135569     1.49500
O304        O  0.53683880  0.37112025  0.01896007    -1.84000
O305        O  0.55279374  0.36123764  0.11110166    -0.74600
O306        O  0.51305630  0.41695409  0.03864819    -0.74400
O307        O  0.62500602  0.38207238  0.99257326    -0.74000
O308        O  0.50479539  0.38295596  0.10525345    -0.74600
O309        O  0.62423407  0.36938573  0.05203610    -0.74200
O310        O  0.55585939  0.41739449  0.99086012    -0.74800
O311        O  0.51000159  0.35599608  0.93388906    -0.74200
O312        O  0.44810644  0.38285886  0.03094092    -0.75000
O313        O  0.55312230  0.38048618  0.92821562    -0.74400
O314        O  0.44929368  0.35235020  0.00458536    -0.74800
O315        O  0.53301056  0.32240410  0.99911123    -0.74700
O316        O  0.57759766  0.32981330  0.04318011    -0.74500
C317        C  0.52614137  0.37178768  0.12611065     0.77300
C318        C  0.53364796  0.42649775  0.01453145     0.77800
C319        C  0.64262179  0.37575252  0.02274753     0.76700
C320        C  0.52924392  0.36815867  0.91309978     0.77100
C321        C  0.43072150  0.36777707  0.01653956     0.78200
C322        C  0.56203720  0.31736082  0.02000773     0.77300
Zn323      Zn  0.49028208  0.61242983  0.04961828     1.49700
Zn324      Zn  0.42156229  0.64257857  0.05223516     1.49400
Zn325      Zn  0.48537999  0.64799349  0.98769607     1.49100
Zn326      Zn  0.42740845  0.61023638  0.98222834     1.49500
O327        O  0.45604978  0.62822682  0.01746930    -1.84000
O328        O  0.48385421  0.61810919  0.10618163    -0.74600
O329        O  0.41805297  0.67144121  0.03753298    -0.74400
O330        O  0.54269844  0.64703188  0.00146532    -0.74000
O331        O  0.43727670  0.64080405  0.10898751    -0.74600
O332        O  0.54466579  0.61967874  0.03816315    -0.74200
O333        O  0.46135206  0.67603727  0.99132325    -0.74800
O334        O  0.44065215  0.61575075  0.92577289    -0.74200
O335        O  0.36749864  0.63326572  0.04370817    -0.75000
O336        O  0.48292153  0.64054258  0.93181714    -0.74400
O337        O  0.36992951  0.61455330  0.99023631    -0.74800
O338        O  0.44188137  0.58093448  0.99172359    -0.74700
O339        O  0.48402456  0.58292608  0.04028550    -0.74500
C340        C  0.46289834  0.63009764  0.12558491     0.77300
C341        C  0.43380103  0.68257749  0.01231669     0.77800
C342        C  0.56159282  0.63382412  0.02039410     0.76700
C343        C  0.46451254  0.62804474  0.91090652     0.77100
C344        C  0.35078508  0.62378575  0.01633073     0.78200
C345        C  0.46488084  0.57264800  0.01579743     0.77300
Zn346      Zn  0.92094582  0.64077142  0.97369115     1.49700
Zn347      Zn  0.99120028  0.61204816  0.97740714     1.49400
Zn348      Zn  0.98591020  0.64837786  0.03838036     1.49100
Zn349      Zn  0.92929222  0.60975802  0.04465126     1.49500
O350        O  0.95678335  0.62779394  0.00916666    -1.84000
O351        O  0.93283592  0.63675068  0.91678725    -0.74600
O352        O  0.04490135  0.61986983  0.98787973    -0.74400
O353        O  0.96253002  0.67647252  0.03059892    -0.74000
O354        O  0.98395545  0.61698083  0.92084885    -0.74600
O355        O  0.92060307  0.67016537  0.98332299    -0.74200
O356        O  0.04311052  0.64757289  0.02366080    -0.74800
O357        O  0.94753603  0.61469449  0.10027427    -0.74200
O358        O  0.98671039  0.58264190  0.98749103    -0.75000
O359        O  0.98472888  0.64174769  0.09548835    -0.74400
O360        O  0.94181695  0.58037709  0.03287025    -0.74800
O361        O  0.87090206  0.61436086  0.03922597    -0.74700
O362        O  0.86723552  0.63219390  0.98495626    -0.74500
C363        C  0.96018416  0.62711462  0.90079338     0.77300
C364        C  0.06190660  0.63430413  0.00478917     0.77800
C365        C  0.93670635  0.68234519  0.00667106     0.76700
C366        C  0.96953777  0.62787062  0.11566758     0.77100
C367        C  0.96610763  0.57214461  0.01009920     0.78200
C368        C  0.85106748  0.62308286  0.01284999     0.77300
C369        C  0.60418199  0.63427975  0.02179197    -0.01200
C370        C  0.62342766  0.62548918  0.05318646    -0.09200
C371        C  0.66345891  0.62365059  0.05355490    -0.18000
C372        C  0.68580299  0.63028484  0.02198106     0.04400
C373        C  0.66621725  0.63965452  0.99050873     0.18600
C374        C  0.62580459  0.64175991  0.99087266    -0.19400
C375        C  0.68700436  0.64644666  0.95848725    -0.20700
C376        C  0.72679403  0.64400821  0.95685306    -0.19200
C377        C  0.74682188  0.63473701  0.98721589     0.20000
C378        C  0.72673295  0.62775415  0.02029154     0.02100
C379        C  0.74854226  0.61844394  0.05003133    -0.14000
C380        C  0.78860166  0.61643708  0.04721461    -0.11700
C381        C  0.80829781  0.62358969  0.01476368     0.01600
C382        C  0.78699225  0.63255285  0.98472898    -0.23900
H383        H  0.60730550  0.61973653  0.07756827     0.09600
H384        H  0.67591412  0.61664952  0.07874349     0.13200
H385        H  0.61105880  0.64844576  0.96634137     0.11900
H386        H  0.67235305  0.65357202  0.93439392     0.13100
H387        H  0.74202822  0.64938816  0.93157526     0.12100
H388        H  0.73559836  0.61266382  0.07601993     0.09200
H389        H  0.80426589  0.60955747  0.07089792     0.12500
H390        H  0.80176457  0.63816659  0.95935009     0.14400
C391        C  0.10447476  0.63484613  0.00262718    -0.01200
C392        C  0.12337620  0.62241129  0.97593761    -0.09200
C393        C  0.16334551  0.62060290  0.97606662    -0.18000
C394        C  0.18605840  0.63115800  0.00327423     0.04400
C395        C  0.16697421  0.64449684  0.02916302     0.18600
C396        C  0.12653126  0.64629227  0.02852191    -0.19400
C397        C  0.18830109  0.65559875  0.05614755    -0.20700
C398        C  0.22811977  0.65345373  0.05852764    -0.19200
C399        C  0.24754338  0.64004791  0.03417240     0.20000
C400        C  0.22691002  0.62875890  0.00602756     0.02100
C401        C  0.24804562  0.61537211  0.98227253    -0.14000
C402        C  0.28798594  0.61344366  0.98618551    -0.11700
C403        C  0.30816558  0.62463460  0.01394190     0.01600
C404        C  0.28761928  0.63788402  0.03787819    -0.23900
H405        H  0.10711211  0.61362426  0.95510574     0.09600
H406        H  0.17541553  0.61060299  0.95482669     0.13200
H407        H  0.11219687  0.65601036  0.04916215     0.11900
H408        H  0.17405370  0.66587200  0.07580956     0.13100
H409        H  0.24380050  0.66219018  0.07989558     0.12100
H410        H  0.23468981  0.60616451  0.96039518     0.09200
H411        H  0.30313580  0.60321438  0.96715362     0.12500
H412        H  0.30290773  0.64684091  0.05920364     0.14400
C413        C  0.52970687  0.44854842  0.01361672    -0.01200
C414        C  0.52874944  0.45888989  0.97841668    -0.09200
C415        C  0.51780526  0.47909721  0.97720016    -0.18000
C416        C  0.50804368  0.48962400  0.01146605     0.04400
C417        C  0.51212268  0.47939653  0.04730072     0.18600
C418        C  0.52215596  0.45902323  0.04798023    -0.19400
C419        C  0.50560383  0.48946539  0.08226336    -0.20700
C420        C  0.49521263  0.50958189  0.08247193    -0.19200
C421        C  0.48951096  0.51989445  0.04769054     0.20000
C422        C  0.49470726  0.50992512  0.01162927     0.02100
C423        C  0.48561737  0.52062154  0.97745017    -0.14000
C424        C  0.47373298  0.54066354  0.97905224    -0.11700
C425        C  0.47131560  0.55075097  0.01455756     0.01600
C426        C  0.47878993  0.54019302  0.04878205    -0.23900
H427        H  0.53464704  0.45108029  0.95154499     0.09600
H428        H  0.51718631  0.48610011  0.94910402     0.13200
H429        H  0.52345389  0.45114553  0.07539378     0.11900
H430        H  0.50895036  0.48177653  0.10968055     0.13100
H431        H  0.49100801  0.51704457  0.11004812     0.12100
H432        H  0.48719671  0.51383649  0.94913415     0.09200
H433        H  0.46796978  0.54855149  0.95226958     0.12500
H434        H  0.47640184  0.54786822  0.07639567     0.12800
C435        C  0.68524165  0.37430592  0.02361872    -0.01200
C436        C  0.70431831  0.37074553  0.05881396    -0.09200
C437        C  0.74371967  0.36658065  0.05987605    -0.18000
C438        C  0.76560718  0.36570785  0.02548081     0.04400
C439        C  0.74626641  0.36956718  0.98984337     0.18600
C440        C  0.70658136  0.37397550  0.98925405    -0.19400
C441        C  0.76653029  0.36875847  0.95491638    -0.20700
C442        C  0.80574814  0.36441982  0.95455921    -0.19200
C443        C  0.82575727  0.36090308  0.98913819     0.20000
C444        C  0.80599580  0.36137260  0.02516277     0.02100
C445        C  0.82781801  0.35805505  0.05930381    -0.14000
C446        C  0.86781720  0.35576098  0.05778047    -0.11700
C447        C  0.88704294  0.35590556  0.02229176     0.01600
C448        C  0.86581418  0.35778380  0.98800872    -0.23900
H449        H  0.68852705  0.37079387  0.08582639     0.09600
H450        H  0.75599510  0.36385616  0.08806416     0.13200
H451        H  0.69203187  0.37640930  0.96181846     0.11900
H452        H  0.75196606  0.37158409  0.92764788     0.13100
H453        H  0.82067944  0.36413335  0.92704669     0.12100
H454        H  0.81514691  0.35791984  0.08772217     0.09200
H455        H  0.88401170  0.35445390  0.08455917     0.12500
H456        H  0.88091158  0.35827633  0.96057002     0.14400
C457        C  0.38807385  0.36886505  0.01353904    -0.01200
C458        C  0.37023191  0.38755759  0.00826531    -0.09200
C459        C  0.33009877  0.38931673  0.00657562    -0.18000
C460        C  0.30614209  0.37236285  0.01092149     0.04400
C461        C  0.32435325  0.35348399  0.01724946     0.18600
C462        C  0.36491038  0.35183377  0.01761982    -0.19400
C463        C  0.30196490  0.33641155  0.02389547    -0.20700
C464        C  0.26194063  0.33767037  0.02482593    -0.19200
C465        C  0.24317693  0.35591526  0.01795786     0.20000
C466        C  0.26484866  0.37347869  0.00999735     0.02100
C467        C  0.24412842  0.39125612  0.00116474    -0.14000
C468        C  0.20363995  0.39157621  0.00106369    -0.11700
C469        C  0.18266282  0.37438561  0.01061947     0.01600
C470        C  0.20271570  0.35662779  0.01889536    -0.23900
H471        H  0.38751722  0.40098761  0.00524283     0.09600
H472        H  0.31866390  0.40420759  0.00270669     0.13200
H473        H  0.37845151  0.33739331  0.02241962     0.11900
H474        H  0.31552964  0.32201580  0.02901499     0.13100
H475        H  0.24549474  0.32420319  0.03064591     0.12100
H476        H  0.25840369  0.40506293  0.99373040     0.09200
H477        H  0.18870979  0.40540471  0.99430778     0.12500
H478        H  0.18661157  0.34313770  0.02556456     0.14400
C479        C  0.97145208  0.55002218  0.01016545    -0.01200
C480        C  0.94836479  0.53762492  0.03313150    -0.09200
C481        C  0.95419390  0.51686386  0.03382500    -0.18000
C482        C  0.98366543  0.50774500  0.01154441     0.04400
C483        C  0.00721098  0.52040932  0.98857768     0.18600
C484        C  0.00080237  0.54120426  0.98790542    -0.19400
C485        C  0.03728031  0.51229523  0.96656018    -0.20700
C486        C  0.04461214  0.49180643  0.96684949    -0.19200
C487        C  0.02185672  0.47884742  0.98888365     0.20000
C488        C  0.99087790  0.48659667  0.01138217     0.02100
C489        C  0.96847983  0.47281320  0.03263824    -0.14000
C490        C  0.97683594  0.45233983  0.03200723    -0.11700
C491        C  0.00772640  0.44473634  0.01023721     0.01600
C492        C  0.02999351  0.45815226  0.98854346    -0.23900
H493        H  0.92567925  0.54398546  0.05081360     0.09600
H494        H  0.93535844  0.50840942  0.05235082     0.13200
H495        H  0.01918095  0.55057904  0.97021951     0.11900
H496        H  0.05542242  0.52189088  0.94908618     0.13100
H497        H  0.06823748  0.48604885  0.94961296     0.12100
H498        H  0.94423373  0.47734306  0.04998808     0.09200
H499        H  0.95883856  0.44240236  0.04887978     0.12500
H500        H  0.05385027  0.45251872  0.97146662     0.14400
C501        C  0.46960943  0.63182799  0.16794493    -0.01200
C502        C  0.45395221  0.64771189  0.18938786    -0.09200
C503        C  0.46210957  0.64982323  0.22892998    -0.18000
C504        C  0.48614428  0.63594461  0.24848127     0.04400
C505        C  0.50177532  0.61983111  0.22652778     0.18600
C506        C  0.49352106  0.61797377  0.18688235    -0.19400
C507        C  0.52555308  0.60556589  0.24421215    -0.20700
C508        C  0.53380504  0.60674206  0.28349411    -0.19200
C509        C  0.51855460  0.62223453  0.30610166     0.20000
C510        C  0.49485642  0.63722520  0.28898808     0.02100
C511        C  0.48059134  0.65260241  0.31336816    -0.14000
C512        C  0.48832389  0.65259966  0.35318286    -0.11700
C513        C  0.51075684  0.63741978  0.37001013     0.01600
C514        C  0.52635980  0.62253001  0.34598662    -0.23900
H515        H  0.43571617  0.65874735  0.17543872     0.09600
H516        H  0.44912678  0.66245672  0.24339592     0.13200
H517        H  0.50587716  0.60560567  0.17068964     0.11900
H518        H  0.53762497  0.59328794  0.22758518     0.13100
H519        H  0.55198530  0.59531747  0.29637170     0.12100
H520        H  0.46295967  0.66470097  0.30263339     0.09200
H521        H  0.47621611  0.66441888  0.37092966     0.12500
H522        H  0.54397412  0.61074925  0.35847735     0.14400
C523        C  0.51504350  0.62454567  0.66750737    -0.01200
C524        C  0.54002670  0.63481148  0.69252970    -0.09200
C525        C  0.53302537  0.63545681  0.73226431    -0.18000
C526        C  0.50041551  0.62588491  0.74844190     0.04400
C527        C  0.47595346  0.61480534  0.72321272     0.18600
C528        C  0.48342773  0.61422556  0.68325072    -0.19400
C529        C  0.44393408  0.60457062  0.73795333    -0.20700
C530        C  0.43567234  0.60509366  0.77736368    -0.19200
C531        C  0.45887489  0.61612122  0.80294300     0.20000
C532        C  0.49127571  0.62689396  0.78869265     0.02100
C533        C  0.51291172  0.63844144  0.81527971    -0.14000
C534        C  0.50351630  0.63885805  0.85438035    -0.11700
C535        C  0.47234224  0.62778813  0.86872527     0.01600
C536        C  0.44991364  0.61649450  0.84272039    -0.23900
H537        H  0.56493049  0.64266441  0.68132446     0.09600
H538        H  0.55372390  0.64362029  0.74944777     0.13200
H539        H  0.46402002  0.60602924  0.66429228     0.11900
H540        H  0.42517669  0.59605988  0.71886773     0.13100
H541        H  0.41080590  0.59692796  0.78785986     0.12100
H542        H  0.53719002  0.64747018  0.80685208     0.09200
H543        H  0.52130703  0.64781444  0.87360421     0.12500
H544        H  0.42546677  0.60803458  0.85336757     0.14400
C545        C  0.87797461  0.64173720  0.50231476    -0.01200
C546        C  0.85654888  0.64553391  0.46873522    -0.09200
C547        C  0.81627212  0.64338974  0.46884883    -0.18000
C548        C  0.79643245  0.63747825  0.50282790     0.04400
C549        C  0.81845017  0.63496658  0.53725925     0.18600
C550        C  0.85859598  0.63700048  0.53658703    -0.19400
C551        C  0.80049271  0.62995173  0.57211087    -0.20700
C552        C  0.76086201  0.62727897  0.57364902    -0.19200
C553        C  0.73834462  0.62907450  0.54018471     0.20000
C554        C  0.75575265  0.63387671  0.50409636     0.02100
C555        C  0.73170248  0.63450337  0.47094032    -0.14000
C556        C  0.69199182  0.63107303  0.47381078    -0.11700
C557        C  0.67495026  0.62721994  0.50976562     0.01600
C558        C  0.69838075  0.62612054  0.54274052    -0.23900
H559        H  0.87107998  0.64919064  0.44196174     0.09600
H560        H  0.80148685  0.64621214  0.44188004     0.13200
H561        H  0.87513950  0.63428525  0.56280578     0.11900
H562        H  0.81724725  0.62809436  0.59842780     0.13100
H563        H  0.74777797  0.62353331  0.60115675     0.12100
H564        H  0.74277554  0.63753800  0.44241437     0.09200
H565        H  0.67433918  0.63210432  0.44794412     0.12500
H566        H  0.68538775  0.62298665  0.57060693     0.14400
C567        C  0.37820419  0.63442750  0.51677097    -0.01200
C568        C  0.36095687  0.61597158  0.50804948    -0.09200
C569        C  0.32103366  0.61401175  0.50635357    -0.18000
C570        C  0.29672946  0.63049851  0.51411720     0.04400
C571        C  0.31434093  0.64913616  0.52396187     0.18600
C572        C  0.35481805  0.65105322  0.52438984    -0.19400
C573        C  0.29142278  0.66561111  0.53392793    -0.20700
C574        C  0.25143041  0.66393564  0.53472784    -0.19200
C575        C  0.23332372  0.64590608  0.52452670     0.20000
C576        C  0.25563565  0.62904038  0.51318956     0.02100
C577        C  0.23578050  0.61153369  0.50107370    -0.14000
C578        C  0.19550967  0.61073598  0.50096689    -0.11700
C579        C  0.17383222  0.62713945  0.51360031     0.01600
C580        C  0.19291817  0.64468277  0.52531185    -0.23900
H581        H  0.37859541  0.60289498  0.50224608     0.09600
H582        H  0.31014507  0.59926600  0.49973345     0.13200
H583        H  0.36811167  0.66526561  0.53185175     0.11900
H584        H  0.30453660  0.67981346  0.54170288     0.13100
H585        H  0.23450731  0.67689811  0.54308662     0.12100
H586        H  0.25047938  0.59831416  0.49086884     0.09200
H587        H  0.18125068  0.59714255  0.49140008     0.12500
H588        H  0.17616663  0.65761906  0.53425931     0.14400
C589        C  0.02204541  0.62718730  0.35948326    -0.01200
C590        C  0.01782188  0.60863893  0.34082350    -0.09200
C591        C  0.01034732  0.60766652  0.30092732    -0.18000
C592        C  0.00761832  0.62533350  0.27839512     0.04400
C593        C  0.01461164  0.64395492  0.29728505     0.18600
C594        C  0.02090976  0.64472533  0.33740528    -0.19400
C595        C  0.01492627  0.66179297  0.27613750    -0.20700
C596        C  0.00790969  0.66164257  0.23654236    -0.19200
C597        C  0.99894192  0.64374945  0.21732951     0.20000
C598        C  0.99813780  0.62532673  0.23796131     0.02100
C599        C  0.98674279  0.60790863  0.21740205    -0.14000
C600        C  0.97669806  0.60882525  0.17807621    -0.11700
C601        C  0.97848391  0.62697348  0.15774830     0.01600
C602        C  0.99003442  0.64431343  0.17762978    -0.23900
H603        H  0.01894299  0.59487401  0.35736337     0.09600
H604        H  0.00692779  0.59293610  0.28847619     0.13200
H605        H  0.02493414  0.65909624  0.35161217     0.11900
H606        H  0.02071895  0.67599081  0.29032852     0.13100
H607        H  0.00853219  0.67572764  0.22099789     0.12100
H608        H  0.98453686  0.59347107  0.23116153     0.09200
H609        H  0.96804573  0.59518571  0.16335523     0.12500
H610        H  0.99125274  0.65846221  0.16230141     0.14400
C611        C  0.00353768  0.63108477  0.65648618    -0.01200
C612        C  0.96555405  0.63377709  0.66910360    -0.09200
C613        C  0.95685842  0.63393986  0.70852694    -0.18000
C614        C  0.98601026  0.63083443  0.73662053     0.04400
C615        C  0.02440749  0.62762568  0.72338133     0.18600
C616        C  0.03293048  0.62827789  0.68369668    -0.19400
C617        C  0.05397177  0.62337382  0.74974256    -0.20700
C618        C  0.04622904  0.62197895  0.78903582    -0.19200
C619        C  0.00896827  0.62539805  0.80304329     0.20000
C620        C  0.97841042  0.63033265  0.77725199     0.02100
C621        C  0.94178890  0.63465278  0.79338580    -0.14000
C622        C  0.93577295  0.63369990  0.83339727    -0.11700
C623        C  0.96577501  0.62811041  0.85840277     0.01600
C624        C  0.00226501  0.62402771  0.84290870    -0.23900
H625        H  0.94245390  0.63591893  0.64828300     0.09600
H626        H  0.92697788  0.63603139  0.71603979     0.13200
H627        H  0.06225386  0.62587904  0.67383744     0.11900
H628        H  0.08319248  0.62077611  0.73983892     0.13100
H629        H  0.06966054  0.61834816  0.80867355     0.12100
H630        H  0.91743303  0.63910431  0.77592840     0.09200
H631        H  0.90745948  0.63718808  0.84476301     0.12500
H632        H  0.02593024  0.62014167  0.86210624     0.14400
C633        C  0.98627327  0.37233727  0.36699097    -0.01200
C634        C  0.96969790  0.38713337  0.34355777    -0.09200
C635        C  0.97939810  0.38865960  0.30448288    -0.18000
C636        C  0.00613808  0.37530076  0.28732798     0.04400
C637        C  0.02301345  0.36035038  0.31120531     0.18600
C638        C  0.01314413  0.35906311  0.35054367    -0.19400
C639        C  0.04926371  0.34658965  0.29558239    -0.20700
C640        C  0.05813727  0.34690051  0.25633065    -0.19200
C641        C  0.04133235  0.36113017  0.23179529     0.20000
C642        C  0.01588353  0.37586920  0.24717259     0.02100
C643        C  0.00064227  0.39029125  0.22149036    -0.14000
C644        C  0.00809820  0.38926990  0.18196067    -0.11700
C645        C  0.03128820  0.37403120  0.16645786     0.01600
C646        C  0.04890447  0.36036978  0.19175820    -0.23900
H647        H  0.94907750  0.39766227  0.35544849     0.09600
H648        H  0.96505679  0.40032739  0.28846174     0.13200
H649        H  0.02642179  0.34759519  0.36834970     0.11900
H650        H  0.06244747  0.33523476  0.31370928     0.13100
H651        H  0.07785522  0.33574395  0.24498839     0.12100
H652        H  0.98232155  0.40239084  0.23085276     0.09200
H653        H  0.99481192  0.40033363  0.16326888     0.12500
H654        H  0.06722366  0.34864276  0.18016622     0.14400
C655        C  0.97514590  0.37027835  0.66478843    -0.01200
C656        C  0.96077501  0.35413631  0.68622640    -0.09200
C657        C  0.96882751  0.35242238  0.72583576    -0.18000
C658        C  0.99143123  0.36698614  0.74541385     0.04400
C659        C  0.00533404  0.38346869  0.72352253     0.18600
C660        C  0.99719558  0.38492470  0.68381146    -0.19400
C661        C  0.02754946  0.39841451  0.74126612    -0.20700
C662        C  0.03631988  0.39742904  0.78047227    -0.19200
C663        C  0.02313560  0.38146225  0.80298532     0.20000
C664        C  0.00064365  0.36592935  0.78582321     0.02100
C665        C  0.98824934  0.35014124  0.80997967    -0.14000
C666        C  0.99702183  0.35007553  0.84951137    -0.11700
C667        C  0.01861685  0.36561867  0.86647130     0.01600
C668        C  0.03196782  0.38113237  0.84276422    -0.23900
H669        H  0.94390869  0.34252887  0.67216766     0.09600
H670        H  0.95709091  0.33949829  0.74024961     0.13200
H671        H  0.00833553  0.39753577  0.66756610     0.11900
H672        H  0.03820545  0.41100907  0.72468247     0.13100
H673        H  0.05346169  0.40930757  0.79332147     0.12100
H674        H  0.97144530  0.33770465  0.79929924     0.09200
H675        H  0.98640685  0.33780699  0.86696423     0.12500
H676        H  0.04867032  0.39324358  0.85540873     0.14400
C677        C  0.97975264  0.44818590  0.51090584    -0.01200
C678        C  0.01698516  0.45568218  0.51730949    -0.09200
C679        C  0.02422097  0.47621472  0.51672786    -0.18000
C680        C  0.99408577  0.49008941  0.51035392     0.04400
C681        C  0.95610264  0.48243432  0.50485073     0.18600
C682        C  0.94941886  0.46162607  0.50434303    -0.19400
C683        C  0.92498104  0.49560555  0.50044443    -0.20700
C684        C  0.93066463  0.51623042  0.50179859    -0.19200
C685        C  0.96776575  0.52420660  0.50639514     0.20000
C686        C  0.00017329  0.51126672  0.50986047     0.02100
C687        C  0.03725591  0.52011461  0.51219902    -0.14000
C688        C  0.04179690  0.54091362  0.51161086    -0.11700
C689        C  0.00965161  0.55354140  0.50956949     0.01600
C690        C  0.97270461  0.54509964  0.50713050    -0.23900
H691        H  0.04088950  0.44554837  0.52246419     0.09600
H692        H  0.05359022  0.48074163  0.52213157     0.13200
H693        H  0.92045498  0.45590074  0.49989768     0.11900
H694        H  0.89594487  0.48991633  0.49646674     0.13100
H695        H  0.90588305  0.52602504  0.49881457     0.12100
H696        H  0.06337562  0.51138899  0.51377105     0.09200
H697        H  0.07059755  0.54717376  0.51326064     0.12500
H698        H  0.94776420  0.55485308  0.50479903     0.14400
C699        C  0.61238477  0.36170593  0.51856421    -0.01200
C700        C  0.63192325  0.35564036  0.48515177    -0.09200
C701        C  0.67187508  0.35844964  0.48196561    -0.18000
C702        C  0.69345887  0.36726515  0.51251948     0.04400
C703        C  0.67354966  0.37224595  0.54714918     0.18600
C704        C  0.63351879  0.36963764  0.54965109    -0.19400
C705        C  0.69353356  0.38012298  0.57898423    -0.20700
C706        C  0.73315590  0.38299657  0.57742708    -0.19200
C707        C  0.75361059  0.37860465  0.54362480     0.20000
C708        C  0.73401376  0.37118283  0.51027080     0.02100
C709        C  0.75591704  0.36816408  0.47621987    -0.14000
C710        C  0.79585188  0.37142753  0.47603535    -0.11700
C711        C  0.81517471  0.37746325  0.50977829     0.01600
C712        C  0.79376993  0.38132758  0.54325182    -0.23900
H713        H  0.61601972  0.34961466  0.46069466     0.09600
H714        H  0.68503145  0.35370127  0.45526034     0.13200
H715        H  0.61848836  0.37424342  0.57569925     0.11900
H716        H  0.67845335  0.38391049  0.60545139     0.13100
H717        H  0.74788859  0.38881309  0.60280917     0.12100
H718        H  0.74301643  0.36323176  0.44941405     0.09200
H719        H  0.81193894  0.36833075  0.44985687     0.12500
H720        H  0.80860115  0.38621349  0.56932505     0.14400
C721        C  0.11328837  0.36467993  0.51921539    -0.01200
C722        C  0.13178534  0.37288895  0.55169488    -0.09200
C723        C  0.17150021  0.37600931  0.55220155    -0.18000
C724        C  0.19443951  0.37124861  0.51973215     0.04400
C725        C  0.17575372  0.36275818  0.48677340     0.18600
C726        C  0.13555405  0.35925450  0.48699790    -0.19400
C727        C  0.19719251  0.35830932  0.45353390    -0.20700
C728        C  0.23671837  0.36210972  0.45230239    -0.19200
C729        C  0.25601266  0.37015338  0.48450206     0.20000
C730        C  0.23515226  0.37473523  0.51878866     0.02100
C731        C  0.25609311  0.38227325  0.55093406    -0.14000
C732        C  0.29607082  0.38443121  0.54955780    -0.11700
C733        C  0.31654190  0.37970874  0.51597498     0.01600
C734        C  0.29628017  0.37305300  0.48313125    -0.23900
H735        H  0.11519314  0.37734372  0.57682477     0.09600
H736        H  0.18309553  0.38264223  0.57818476     0.13200
H737        H  0.12136097  0.35327632  0.46143721     0.11900
H738        H  0.18324452  0.35195761  0.42819134     0.13100
H739        H  0.25240554  0.35848903  0.42611188     0.12100
H740        H  0.24271397  0.38606329  0.57804859     0.09200
H741        H  0.31124504  0.38950724  0.57526069     0.12500
H742        H  0.31213896  0.36904012  0.45723469     0.14400
C743        C  0.48248439  0.36867757  0.37088034    -0.01200
C744        C  0.51046325  0.35572579  0.35557733    -0.09200
C745        C  0.51905537  0.35580495  0.31613213    -0.18000
C746        C  0.49969009  0.36887005  0.29039869     0.04400
C747        C  0.47123926  0.38192655  0.30604354     0.18600
C748        C  0.46309893  0.38178764  0.34584688    -0.19400
C749        C  0.45091180  0.39502953  0.28187370    -0.20700
C750        C  0.45796951  0.39537666  0.24233003    -0.19200
C751        C  0.48575011  0.38273903  0.22599483     0.20000
C752        C  0.50727449  0.36939041  0.24975345     0.02100
C753        C  0.53535739  0.35716563  0.23171003    -0.14000
C754        C  0.54143393  0.35804269  0.19180907    -0.11700
C755        C  0.51980929  0.37105944  0.16848087     0.01600
C756        C  0.49206045  0.38339885  0.18590307    -0.23900
H757        H  0.52612785  0.34551433  0.37423354     0.09600
H758        H  0.54089320  0.34540231  0.30673875     0.13200
H759        H  0.44143227  0.39189400  0.35730484     0.11900
H760        H  0.42921172  0.40501973  0.29361314     0.13100
H761        H  0.44155384  0.40562295  0.22437629     0.12100
H762        H  0.55316597  0.34678126  0.24756482     0.09200
H763        H  0.56315927  0.34838072  0.17918216     0.12500
H764        H  0.47525215  0.39361800  0.16823619     0.14400
C765        C  0.52299405  0.36839462  0.87054671    -0.01200
C766        C  0.54727473  0.37964260  0.84668317    -0.09200
C767        C  0.54053639  0.38091700  0.80688844    -0.18000
C768        C  0.50877764  0.37101689  0.78945012     0.04400
C769        C  0.48430498  0.35949248  0.81366773     0.18600
C770        C  0.49173226  0.35815363  0.85367705    -0.19400
C771        C  0.45224725  0.34957805  0.79792984    -0.20700
C772        C  0.44384212  0.35091547  0.75857831    -0.19200
C773        C  0.46739715  0.36211063  0.73389087     0.20000
C774        C  0.50028444  0.37227120  0.74894426     0.02100
C775        C  0.52328341  0.38325943  0.72279377    -0.14000
C776        C  0.51404840  0.38407618  0.68350250    -0.11700
C777        C  0.48170309  0.37403961  0.66860336     0.01600
C778        C  0.45837282  0.36309866  0.69411310    -0.23900
H779        H  0.57165499  0.38768580  0.85881335     0.09600
H780        H  0.56048043  0.38994077  0.79082438     0.13200
H781        H  0.47256014  0.34947641  0.87180947     0.11900
H782        H  0.43340072  0.34079750  0.81622258     0.13100
H783        H  0.41874925  0.34310680  0.74737552     0.12100
H784        H  0.54871731  0.39128497  0.73156487     0.09200
H785        H  0.53284314  0.39253768  0.66461608     0.12500
H786        H  0.43338538  0.35516736  0.68300569     0.14400
C787        C  0.48365345  0.44827482  0.50750420    -0.01200
C788        C  0.52087002  0.45548982  0.50043417    -0.09200
C789        C  0.52791763  0.47604559  0.49771266    -0.18000
C790        C  0.49789605  0.49010898  0.50318670     0.04400
C791        C  0.46037153  0.48262005  0.51162431     0.18600
C792        C  0.45341125  0.46186809  0.51265628    -0.19400
C793        C  0.43021128  0.49587530  0.51983857    -0.20700
C794        C  0.43658853  0.51642684  0.52048968    -0.19200
C795        C  0.47295584  0.52426156  0.51163919     0.20000
C796        C  0.50391903  0.51129862  0.50174904     0.02100
C797        C  0.53940831  0.52016417  0.49082424    -0.14000
C798        C  0.54427228  0.54100445  0.49129808    -0.11700
C799        C  0.51421681  0.55356931  0.50318438     0.01600
C800        C  0.47852012  0.54505889  0.51281449    -0.23900
H801        H  0.54463294  0.44511499  0.49666945     0.09600
H802        H  0.55731542  0.48047991  0.49235808     0.13200
H803        H  0.42472854  0.45626253  0.51887397     0.11900
H804        H  0.40166013  0.49029202  0.52659212     0.13100
H805        H  0.41281386  0.52628271  0.52777438     0.12100
H806        H  0.56380133  0.51139193  0.48149608     0.09200
H807        H  0.57191448  0.54727338  0.48323715     0.12500
H808        H  0.45475385  0.55471590  0.52114506     0.14400
C809        C  0.68388512  0.20624707  0.98205666    -0.01200
C810        C  0.69736672  0.21941793  0.01077586    -0.09200
C811        C  0.67869638  0.23771595  0.01778719    -0.18000
C812        C  0.64544777  0.24340782  0.99643558     0.04400
C813        C  0.63311588  0.23048085  0.96609500     0.18600
C814        C  0.65229834  0.21224676  0.95918602    -0.19400
C815        C  0.60112203  0.23558855  0.94326875    -0.20700
C816        C  0.58081926  0.25323800  0.95002692    -0.19200
C817        C  0.59156089  0.26614282  0.98018167     0.20000
C818        C  0.62384719  0.26132913  0.00407222     0.02100
C819        C  0.63271027  0.27454664  0.03482454    -0.14000
C820        C  0.61141190  0.29207042  0.04068776    -0.11700
C821        C  0.58042782  0.29722098  0.01624214     0.01600
C822        C  0.57035941  0.28393460  0.98633317    -0.23900
H823        H  0.72186637  0.21534794  0.02865863     0.09600
H824        H  0.69069586  0.24696953  0.04044802     0.13200
H825        H  0.64157268  0.20235138  0.93664416     0.11900
H826        H  0.59163848  0.22581467  0.91999814     0.13100
H827        H  0.55629720  0.25673748  0.93168662     0.12100
H828        H  0.65604318  0.27179437  0.05484309     0.09200
H829        H  0.61995625  0.30189309  0.06421484     0.12500
H830        H  0.54661139  0.28766968  0.96714226     0.14400
C831        C  0.07354985  0.12398523  0.99096185    -0.01200
C832        C  0.05160650  0.10985027  0.01101036    -0.09200
C833        C  0.01145316  0.11178670  0.01334428    -0.18000
C834        C  0.99199803  0.12825018  0.99618925     0.04400
C835        C  0.01465923  0.14287631  0.97698847     0.18600
C836        C  0.05479055  0.14046029  0.97404434    -0.19400
C837        C  0.99720704  0.15988968  0.96092791    -0.20700
C838        C  0.95746194  0.16257386  0.96290844    -0.19200
C839        C  0.93404007  0.14810447  0.98026050     0.20000
C840        C  0.95097885  0.13070104  0.99713654     0.02100
C841        C  0.92599080  0.11620720  0.01309756    -0.14000
C842        C  0.88604987  0.11850965  0.01095022    -0.11700
C843        C  0.86958069  0.13549995  0.99393118     0.01600
C844        C  0.89363561  0.15054955  0.97955272    -0.23900
H845        H  0.06551889  0.09715817  0.02470632     0.09600
H846        H  0.99654895  0.10028069  0.02918017     0.13200
H847        H  0.07166488  0.15176484  0.95924731     0.11900
H848        H  0.01443921  0.17120235  0.94662355     0.13100
H849        H  0.94487000  0.17585045  0.94997937     0.12100
H850        H  0.93631232  0.10257719  0.02618079     0.09200
H851        H  0.86774904  0.10670995  0.02211899     0.12500
H852        H  0.88086509  0.16358469  0.96586135     0.14400
C853        C  0.36901717  0.14019302  0.99120030    -0.01200
C854        C  0.38682649  0.14598277  0.95681503    -0.09200
C855        C  0.42681863  0.14470095  0.95283854    -0.18000
C856        C  0.45018126  0.13710442  0.98315458     0.04400
C857        C  0.43174760  0.13164472  0.01835551     0.18600
C858        C  0.39150521  0.13330501  0.02207526    -0.19400
C859        C  0.45341835  0.12398594  0.04920553    -0.20700
C860        C  0.49306658  0.12143583  0.04583088    -0.19200
C861        C  0.51205226  0.12643273  0.01148369     0.20000
C862        C  0.49095790  0.13438764  0.97963946     0.02100
C863        C  0.51162777  0.13913505  0.94563330    -0.14000
C864        C  0.55151991  0.13640524  0.94362131    -0.11700
C865        C  0.57227194  0.12874602  0.97519581     0.01600
C866        C  0.55216230  0.12362849  0.00894428    -0.23900
H867        H  0.36952628  0.15089359  0.93241460     0.09600
H868        H  0.43837524  0.14927663  0.92534411     0.13200
H869        H  0.37741422  0.12832968  0.04834733     0.11900
H870        H  0.43955178  0.11978610  0.07606600     0.13100
H871        H  0.50898814  0.11541721  0.07024294     0.12100
H872        H  0.49791775  0.14513262  0.92013599     0.09200
H873        H  0.56623717  0.14054243  0.91721272     0.12500
H874        H  0.56785722  0.11783923  0.03372425     0.14400
C875        C  0.17801236  0.20193873  0.98748456    -0.01200
C876        C  0.15051734  0.20763205  0.95963993    -0.09200
C877        C  0.12963241  0.22542391  0.96346114    -0.18000
C878        C  0.13538703  0.23823139  0.99559676     0.04400
C879        C  0.16460591  0.23291837  0.02278438     0.18600
C880        C  0.18550791  0.21495763  0.01853482    -0.19400
C881        C  0.17234253  0.24538533  0.05449368    -0.20700
C882        C  0.15165287  0.26300666  0.05991024    -0.19200
C883        C  0.12232458  0.26849236  0.03405208     0.20000
C884        C  0.11336442  0.25611357  0.00173216     0.02100
C885        C  0.08268761  0.26218507  0.97718022    -0.14000
C886        C  0.06317023  0.28027731  0.98343444    -0.11700
C887        C  0.07337809  0.29286393  0.01436253     0.01600
C888        C  0.10239648  0.28654247  0.04005902    -0.23900
H889        H  0.14427075  0.19801396  0.93509425     0.09600
H890        H  0.10894860  0.22862822  0.94095215     0.13200
H891        H  0.20673477  0.21080870  0.04021866     0.11900
H892        H  0.19461531  0.24149338  0.07526695     0.13100
H893        H  0.15859457  0.27240196  0.08461695     0.12100
H894        H  0.07335950  0.25340039  0.95266555     0.09200
H895        H  0.04083356  0.28471074  0.96317396     0.12500
H896        H  0.11048417  0.29602297  0.06430564     0.14400
C897        C  0.81906207  0.79546319  0.00382940    -0.01200
C898        C  0.83512527  0.78893452  0.03887582    -0.09200
C899        C  0.85680489  0.77124025  0.04058543    -0.18000
C900        C  0.86244495  0.75928210  0.00717889     0.04400
C901        C  0.84452871  0.76561662  0.97210992     0.18600
C902        C  0.82381968  0.78370032  0.97060865    -0.19400
C903        C  0.84741974  0.75390426  0.93862454    -0.20700
C904        C  0.86731980  0.73585278  0.93921456    -0.19200
C905        C  0.88572126  0.72931501  0.97302672     0.20000
C906        C  0.88448979  0.74110896  0.00730735     0.02100
C907        C  0.90523638  0.73407917  0.04004211    -0.14000
C908        C  0.92429347  0.71551680  0.03932300    -0.11700
C909        C  0.92310695  0.70342461  0.00612468     0.01600
C910        C  0.90464636  0.71075021  0.97283813    -0.23900
H911        H  0.83219960  0.79798006  0.06479720     0.09600
H912        H  0.86864844  0.76725743  0.06842322     0.13200
H913        H  0.81141704  0.78871096  0.94342188     0.11900
H914        H  0.83370243  0.75859838  0.91188830     0.13100
H915        H  0.86834525  0.72693096  0.91296609     0.12100
H916        H  0.90687713  0.74249536  0.06667936     0.09200
H917        H  0.93853562  0.71024162  0.06534079     0.12500
H918        H  0.90411558  0.70166808  0.94674703     0.14400
C919        C  0.75942076  0.94735988  0.99913209    -0.01200
C920        C  0.72169852  0.95480741  0.99590008    -0.09200
C921        C  0.71463220  0.97528081  0.99142019    -0.18000
C922        C  0.74532238  0.98915140  0.98927418     0.04400
C923        C  0.78365740  0.98147654  0.99096186     0.18600
C924        C  0.79035878  0.96082154  0.99672645    -0.19400
C925        C  0.81503710  0.99445005  0.98645935    -0.20700
C926        C  0.80923939  0.01487520  0.98071583    -0.19200
C927        C  0.77196054  0.02299302  0.98061122     0.20000
C928        C  0.73940251  0.01031470  0.98535296     0.02100
C929        C  0.70252075  0.01947384  0.98708146    -0.14000
C930        C  0.69836270  0.04033068  0.98478220    -0.11700
C931        C  0.73054765  0.05269641  0.97958902     0.01600
C932        C  0.76718494  0.04383624  0.97686032    -0.23900
H933        H  0.69729406  0.94468354  0.99705827     0.09600
H934        H  0.68484114  0.97974216  0.98900410     0.13200
H935        H  0.81964456  0.95514085  0.99813641     0.11900
H936        H  0.84431224  0.98874504  0.98717973     0.13100
H937        H  0.83419759  0.02447286  0.97720875     0.12100
H938        H  0.67646323  0.01098225  0.99140527     0.09200
H939        H  0.66980219  0.04682076  0.98707340     0.12500
H940        H  0.79235600  0.05330688  0.97342921     0.14400
C941        C  0.42798054  0.86789365  0.97425627    -0.01200
C942        C  0.44709757  0.85073394  0.96069302    -0.09200
C943        C  0.48663744  0.84803484  0.96731647    -0.18000
C944        C  0.50853009  0.86267793  0.98730491     0.04400
C945        C  0.48923803  0.88052173  0.99911469     0.18600
C946        C  0.44936422  0.88279685  0.99310419    -0.19400
C947        C  0.50976342  0.89600808  0.01709522    -0.20700
C948        C  0.54909514  0.89420545  0.02377126    -0.19200
C949        C  0.56874507  0.87669491  0.01341887     0.20000
C950        C  0.54884198  0.86047146  0.99563335     0.02100
C951        C  0.57030832  0.84288954  0.98705791    -0.14000
C952        C  0.61023602  0.84200305  0.99397533    -0.11700
C953        C  0.62967212  0.85858089  0.00941936     0.01600
C954        C  0.60856088  0.87560756  0.01991804    -0.23900
H955        H  0.43112819  0.83900292  0.94596727     0.09600
H956        H  0.49929050  0.83438688  0.95642480     0.13200
H957        H  0.43486467  0.89623366  0.00316631     0.11900
H958        H  0.49533228  0.90969878  0.02582232     0.13100
H959        H  0.56426125  0.90660189  0.03729649     0.12100
H960        H  0.55712818  0.82974851  0.97450980     0.09200
H961        H  0.62620655  0.82877629  0.98534568     0.12500
H962        H  0.62363926  0.88845052  0.03198861     0.14400
C963        C  0.12845341  0.86535908  0.97169626    -0.01200
C964        C  0.11031944  0.88403695  0.96726828    -0.09200
C965        C  0.07058682  0.88615743  0.97180331    -0.18000
C966        C  0.04712398  0.86952262  0.98063010     0.04400
C967        C  0.06518875  0.85039883  0.98341588     0.18600
C968        C  0.10558572  0.84853063  0.97967379    -0.19400
C969        C  0.04275350  0.83328652  0.98980551    -0.20700
C970        C  0.00282668  0.83474654  0.99332701    -0.19200
C971        C  0.98442524  0.85343801  0.99193684     0.20000
C972        C  0.00637712  0.87117066  0.98640912     0.02100
C973        C  0.98661608  0.88978556  0.98751792    -0.14000
C974        C  0.94667865  0.89067174  0.99309036    -0.11700
C975        C  0.92516196  0.87311472  0.99689640     0.01600
C976        C  0.94413796  0.85454006  0.99618805    -0.23900
H977        H  0.12707149  0.89732796  0.96094596     0.09600
H978        H  0.05906648  0.90101065  0.96779365     0.13200
H979        H  0.11915282  0.83396993  0.98267373     0.11900
H980        H  0.05613293  0.81863408  0.99167951     0.13100
H981        H  0.98626479  0.82117240  0.99774934     0.12100
H982        H  0.00125543  0.90394077  0.98467141     0.09200
H983        H  0.93238032  0.90511373  0.99329629     0.12500
H984        H  0.92740757  0.84090004  0.99927511     0.14400
C985        C  0.31236328  0.79262532  0.96660159    -0.01200
C986        C  0.33974378  0.78587966  0.93964710    -0.09200
C987        C  0.36045994  0.76819017  0.94573354    -0.18000
C988        C  0.35463172  0.75654080  0.97929949     0.04400
C989        C  0.32526853  0.76278863  0.00542049     0.18600
C990        C  0.30454912  0.78063122  0.99890217    -0.19400
C991        C  0.31733678  0.75142872  0.03842305    -0.20700
C992        C  0.33795013  0.73401396  0.04616386    -0.19200
C993        C  0.36754724  0.72768766  0.02149995     0.20000
C994        C  0.37675248  0.73895113  0.98794233     0.02100
C995        C  0.40785850  0.73215108  0.96483072    -0.14000
C996        C  0.42767445  0.71442517  0.97374207    -0.11700
C997        C  0.41730263  0.70291149  0.00595477     0.01600
C998        C  0.38764151  0.70995543  0.03006582    -0.23900
H999        H  0.34625496  0.79469062  0.91420005     0.09600
H1000       H  0.38119003  0.76416303  0.92385682     0.13200
H1001       H  0.28349815  0.78561387  0.01998962     0.11900
H1002       H  0.29496796  0.75603468  0.05841188     0.13100
H1003       H  0.33083219  0.72548338  0.07182820     0.12100
H1004       H  0.41739310  0.74013122  0.93951201     0.09200
H1005       H  0.45043234  0.70941348  0.95461642     0.12500
H1006       H  0.37935567  0.70132366  0.05526081     0.14400
C1007       C  0.26961166  0.94528244  0.98205218    -0.01200
C1008       C  0.29903371  0.95705754  0.99818118    -0.09200
C1009       C  0.29452087  0.97782554  0.00196484    -0.18000
C1010       C  0.25998144  0.98744502  0.99015423     0.04400
C1011       C  0.22981516  0.97526981  0.97508284     0.18600
C1012       C  0.23508061  0.95455581  0.97066457    -0.19400
C1013       C  0.19436441  0.98377880  0.96467536    -0.20700
C1014       C  0.18806566  0.00422059  0.96894988    -0.19200
C1015       C  0.21744514  0.01676295  0.98262654     0.20000
C1016       C  0.25409784  0.00863163  0.99284299     0.02100
C1017       C  0.28345770  0.02214350  0.00429340    -0.14000
C1018       C  0.27671606  0.04279125  0.00511270    -0.11700
C1019       C  0.24036409  0.05058299  0.99578676     0.01600
C1020       C  0.21065568  0.03750360  0.98516601    -0.23900
H1021       H  0.32579092  0.95021958  0.00766026     0.09600
H1022       H  0.31831427  0.98589617  0.01473383     0.13200
H1023       H  0.21176468  0.94554783  0.95889881     0.11900
H1024       H  0.17119780  0.97452310  0.95338750     0.13100
H1025       H  0.16020788  0.01031760  0.96082411     0.12100
H1026       H  0.31220483  0.01727643  0.01164979     0.09200
H1027       H  0.30008796  0.05277757  0.01311563     0.12500
H1028       H  0.18270859  0.04358818  0.97723204     0.14400
C1029       C  0.92161547  0.29781203  0.50845465    -0.01200
C1030       C  0.89966751  0.28994022  0.53884541    -0.09200
C1031       C  0.87861236  0.27229564  0.53411723    -0.18000
C1032       C  0.87841873  0.26191851  0.49840999     0.04400
C1033       C  0.90163598  0.26961550  0.46795608     0.18600
C1034       C  0.92299315  0.28737147  0.47323570    -0.19400
C1035       C  0.90313689  0.25962136  0.43231972    -0.20700
C1036       C  0.88299121  0.24182217  0.42660574    -0.19200
C1037       C  0.86021546  0.23376790  0.45612699     0.20000
C1038       C  0.85662160  0.24400838  0.49205513     0.02100
C1039       C  0.83159500  0.23575388  0.52010295    -0.14000
C1040       C  0.81331583  0.21736482  0.51383992    -0.11700
C1041       C  0.81928106  0.20658098  0.47952387     0.01600
C1042       C  0.84181082  0.21522942  0.45028639    -0.23900
H1043       H  0.89825039  0.29768079  0.56641922     0.09600
H1044       H  0.86273968  0.26719955  0.55898794     0.13200
H1045       H  0.93957204  0.29345236  0.44943341     0.11900
H1046       H  0.92051520  0.26544414  0.40887718     0.13100
H1047       H  0.88547777  0.23421629  0.39896138     0.12100
H1048       H  0.82594025  0.24299705  0.54742478     0.09200
H1049       H  0.79571189  0.21118359  0.53673622     0.12500
H1050       H  0.84608387  0.20721131  0.42328940     0.14400
C1051       C  0.73090804  0.12927244  0.12569065    -0.01200
C1052       C  0.70726691  0.11744993  0.14919677    -0.09200
C1053       C  0.71355247  0.11653996  0.18915520    -0.18000
C1054       C  0.74405909  0.12737478  0.20684772     0.04400
C1055       C  0.76808784  0.13915883  0.18266781     0.18600
C1056       C  0.76125052  0.14004408  0.14275588    -0.19400
C1057       C  0.79894371  0.15002143  0.19834950    -0.20700
C1058       C  0.80643920  0.14959296  0.23780868    -0.19200
C1059       C  0.78322235  0.13831560  0.26255121     0.20000
C1060       C  0.75171235  0.12699269  0.24749775     0.02100
C1061       C  0.72923998  0.11588657  0.27386284    -0.14000
C1062       C  0.73759941  0.11611056  0.31335403    -0.11700
C1063       C  0.76852316  0.12740706  0.32804426     0.01600
C1064       C  0.79127723  0.13842185  0.30238490    -0.23900
H1065       H  0.68370053  0.10893177  0.13669756     0.09600
H1066       H  0.69408608  0.10717586  0.20532908     0.13200
H1067       H  0.78005619  0.14906884  0.12481951     0.11900
H1068       H  0.81741027  0.15896111  0.17994057     0.13100
H1069       H  0.83050493  0.15821622  0.24907647     0.12100
H1070       H  0.70483456  0.10695467  0.26497328     0.09200
H1071       H  0.71934331  0.10752370  0.33254024     0.12500
H1072       H  0.81523111  0.14722346  0.31342510     0.14400
C1073       C  0.77774169  0.13186509  0.62639676    -0.01200
C1074       C  0.80021163  0.11926334  0.64974842    -0.09200
C1075       C  0.79489544  0.11869934  0.68984136    -0.18000
C1076       C  0.76662619  0.13075573  0.70808332     0.04400
C1077       C  0.74359722  0.14334731  0.68423289     0.18600
C1078       C  0.74943637  0.14386073  0.64401439    -0.19400
C1079       C  0.71467142  0.15529242  0.70059036    -0.20700
C1080       C  0.70794757  0.15496831  0.74023673    -0.19200
C1081       C  0.73019861  0.14282573  0.76461125     0.20000
C1082       C  0.76011341  0.13067247  0.74897641     0.02100
C1083       C  0.78221129  0.11901882  0.77501396    -0.14000
C1084       C  0.77448109  0.11915201  0.81464208    -0.11700
C1085       C  0.74449096  0.13083807  0.82989109     0.01600
C1086       C  0.72262087  0.14275470  0.80459699    -0.23900
H1087       H  0.82202942  0.10970948  0.63699265     0.09600
H1088       H  0.81319224  0.10852944  0.70567145     0.13200
H1089       H  0.73150973  0.15355586  0.62634502     0.11900
H1090       H  0.69695050  0.16489299  0.68254378     0.13100
H1091       H  0.68518270  0.16431321  0.75192656     0.12100
H1092       H  0.80578407  0.10966153  0.76573582     0.09200
H1093       H  0.79211818  0.10991460  0.83342344     0.12500
H1094       H  0.69956833  0.15201538  0.81599368     0.14400
C1095       C  0.43527568  0.12928258  0.48466139    -0.01200
C1096       C  0.45414503  0.14224734  0.51058216    -0.09200
C1097       C  0.49364156  0.14565114  0.50810377    -0.18000
C1098       C  0.51603933  0.13604150  0.47954049     0.04400
C1099       C  0.49684936  0.12307677  0.45290791     0.18600
C1100       C  0.45682599  0.11988194  0.45557254    -0.19400
C1101       C  0.51779147  0.11320760  0.42404148    -0.20700
C1102       C  0.55758721  0.11538273  0.42186712    -0.19200
C1103       C  0.57734832  0.12755362  0.44839251     0.20000
C1104       C  0.55687938  0.13843835  0.47709688     0.02100
C1105       C  0.57835560  0.15082651  0.50268254    -0.14000
C1106       C  0.61859387  0.15142282  0.50115960    -0.11700
C1107       C  0.63859626  0.13980043  0.47414769     0.01600
C1108       C  0.61769251  0.12838494  0.44710593    -0.23900
H1109       H  0.43827919  0.15002996  0.53302085     0.09600
H1110       H  0.50569661  0.15577305  0.52921386     0.13200
H1111       H  0.44251761  0.11004179  0.43503770     0.11900
H1112       H  0.50339352  0.10344643  0.40344068     0.13100
H1113       H  0.57310791  0.10719334  0.39969639     0.12100
H1114       H  0.56509847  0.15991001  0.52471798     0.09200
H1115       H  0.63411378  0.16046300  0.52214936     0.12500
H1116       H  0.63293662  0.11958900  0.42559106     0.14400
C1117       C  0.13943238  0.13435821  0.47782763    -0.01200
C1118       C  0.11937726  0.14654315  0.45166285    -0.09200
C1119       C  0.07927241  0.14478898  0.44740989    -0.18000
C1120       C  0.05792424  0.13074089  0.46945913     0.04400
C1121       C  0.07856907  0.11842721  0.49580539     0.18600
C1122       C  0.11861793  0.12031510  0.49964960    -0.19400
C1123       C  0.05918923  0.10434328  0.51855154    -0.20700
C1124       C  0.01932094  0.10260688  0.51665869    -0.19200
C1125       C  0.99786013  0.11478896  0.49172136     0.20000
C1126       C  0.01687345  0.12870632  0.46707188     0.02100
C1127       C  0.99384480  0.14018271  0.44163851    -0.14000
C1128       C  0.95369489  0.13862046  0.44207431    -0.11700
C1129       C  0.93493773  0.12562040  0.46778449     0.01600
C1130       C  0.95735934  0.11342413  0.49196407    -0.23900
H1131       H  0.13472553  0.15735117  0.43416535     0.09600
H1132       H  0.06582766  0.15471101  0.42684327     0.13200
H1133       H  0.13362698  0.11068901  0.51998489     0.11900
H1134       H  0.07494214  0.09481045  0.53847192     0.13100
H1135       H  0.00513154  0.09182637  0.53521136     0.12100
H1136       H  0.00592288  0.15068999  0.42141119     0.09200
H1137       H  0.93723106  0.14812991  0.42273514     0.12500
H1138       H  0.94328104  0.10312389  0.51160289     0.14400
C1139       C  0.41712197  0.29849299  0.52047376    -0.01200
C1140       C  0.39504920  0.29144372  0.55154217    -0.09200
C1141       C  0.37494174  0.27333602  0.54895441    -0.18000
C1142       C  0.37580237  0.26164050  0.51475377     0.04400
C1143       C  0.39835939  0.26880189  0.48333377     0.18600
C1144       C  0.41887372  0.28695874  0.48653498    -0.19400
C1145       C  0.40009556  0.25787848  0.44873672    -0.20700
C1146       C  0.38012434  0.23991618  0.44463598    -0.19200
C1147       C  0.35780952  0.23238808  0.47499523     0.20000
C1148       C  0.35526333  0.24311395  0.51056708     0.02100
C1149       C  0.33279959  0.23460677  0.54050865    -0.14000
C1150       C  0.31499758  0.21594273  0.53574308    -0.11700
C1151       C  0.31783430  0.20547196  0.50073031     0.01600
C1152       C  0.33879148  0.21389747  0.47028214    -0.23900
H1153       H  0.39302664  0.30008700  0.57805560     0.09600
H1154       H  0.35865779  0.26903418  0.57410313     0.13200
H1155       H  0.43531775  0.29241412  0.46208500     0.11900
H1156       H  0.41712087  0.26324974  0.42464086     0.13100
H1157       H  0.38234438  0.23177922  0.41753634     0.12100
H1158       H  0.32926903  0.24172250  0.56830450     0.09200
H1159       H  0.29950453  0.20944015  0.55983080     0.12500
H1160       H  0.34198803  0.20551022  0.44353881     0.14400
C1161       C  0.23708540  0.12855835  0.13780795    -0.01200
C1162       C  0.23894424  0.11039286  0.15790670    -0.09200
C1163       C  0.24892188  0.10999012  0.19718374    -0.18000
C1164       C  0.25670271  0.12791129  0.21785434     0.04400
C1165       C  0.25370091  0.14632889  0.19745075     0.18600
C1166       C  0.24464508  0.14645558  0.15778886    -0.19400
C1167       C  0.25938916  0.16455294  0.21680179    -0.20700
C1168       C  0.26705999  0.16494689  0.25633251    -0.19200
C1169       C  0.27035857  0.14710418  0.27730035     0.20000
C1170       C  0.26643305  0.12829933  0.25815593     0.02100
C1171       C  0.27233954  0.11074704  0.28027292    -0.14000
C1172       C  0.27999631  0.11183659  0.31997824    -0.11700
C1173       C  0.28151425  0.13036103  0.33911587     0.01600
C1174       C  0.27716445  0.14796229  0.31745642    -0.23900
H1175       H  0.23349643  0.09637145  0.14297748     0.09600
H1176       H  0.24976544  0.09545214  0.21067779     0.13200
H1177       H  0.24301526  0.16060238  0.14246376     0.11900
H1178       H  0.25713797  0.17863983  0.20139120     0.13100
H1179       H  0.27045529  0.17932551  0.27061188     0.12100
H1180       H  0.27127176  0.09595287  0.26772236     0.09200
H1181       H  0.28351888  0.09802779  0.33604058     0.12500
H1182       H  0.27898334  0.16237602  0.33193221     0.14400
C1183       C  0.27508414  0.12820662  0.63947136    -0.01200
C1184       C  0.30704730  0.12816022  0.66435278    -0.09200
C1185       C  0.30206665  0.12835321  0.70447570    -0.18000
C1186       C  0.26471616  0.12899871  0.72087197     0.04400
C1187       C  0.23259154  0.13038118  0.69533174     0.18600
C1188       C  0.23796819  0.12948130  0.65515427    -0.19400
C1189       C  0.19527873  0.13272193  0.70999858    -0.20700
C1190       C  0.18904743  0.13342237  0.74967865    -0.19200
C1191       C  0.21976329  0.13092726  0.77559862     0.20000
C1192       C  0.25801030  0.12837357  0.76159376     0.02100
C1193       C  0.28762033  0.12462358  0.78887502    -0.14000
C1194       C  0.27951211  0.12352219  0.82833904    -0.11700
C1195       C  0.24192422  0.12652122  0.84198737     0.01600
C1196       C  0.21227006  0.13047500  0.81548231    -0.23900
H1197       H  0.33602529  0.12764107  0.65273676     0.09600
H1198       H  0.32794264  0.12830155  0.72187995     0.13200
H1199       H  0.21317967  0.13018590  0.63594529     0.11900
H1200       H  0.17075082  0.13411478  0.69063583     0.13100
H1201       H  0.15983794  0.13535570  0.76015483     0.12100
H1202       H  0.31710743  0.12192948  0.78054052     0.09200
H1203       H  0.30294831  0.12050697  0.84834434     0.12500
H1204       H  0.18306060  0.13263655  0.82584594     0.14400
C1205       C  0.66146958  0.79935633  0.50556910    -0.01200
C1206       C  0.62103116  0.79861275  0.50483952    -0.09200
C1207       C  0.60134140  0.78040276  0.50672684    -0.18000
C1208       C  0.62155229  0.76212945  0.51040447     0.04400
C1209       C  0.66268195  0.76292992  0.51123880     0.18600
C1210       C  0.68223493  0.78141145  0.50795326    -0.19400
C1211       C  0.68400484  0.74533042  0.51641423    -0.20700
C1212       C  0.66549145  0.72704408  0.52158696    -0.19200
C1213       C  0.62515938  0.72576534  0.52072055     0.20000
C1214       C  0.60249700  0.74317167  0.51421083     0.02100
C1215       C  0.56187033  0.74074365  0.51164886    -0.14000
C1216       C  0.54467471  0.72182959  0.51561928    -0.11700
C1217       C  0.56721603  0.70487479  0.52323316     0.01600
C1218       C  0.60742946  0.70704626  0.52589849    -0.23900
H1219       H  0.60439364  0.81233933  0.50296800     0.09600
H1220       H  0.57029387  0.78118637  0.50634879     0.13200
H1221       H  0.71348898  0.78191426  0.50902033     0.11900
H1222       H  0.71525693  0.74575692  0.51719684     0.13100
H1223       H  0.68290807  0.71375490  0.52613429     0.12100
H1224       H  0.54268836  0.75309566  0.50585027     0.09200
H1225       H  0.51363858  0.72047284  0.51287503     0.12500
H1226       H  0.62524336  0.69391500  0.53076397     0.14400
C1227       C  0.71981018  0.86939322  0.35236885    -0.01200
C1228       C  0.72482567  0.85113357  0.33296870    -0.09200
C1229       C  0.73344409  0.85060317  0.29348554    -0.18000
C1230       C  0.73821975  0.86848165  0.27202213     0.04400
C1231       C  0.73284630  0.88699766  0.29176623     0.18600
C1232       C  0.72313410  0.88728592  0.33135659    -0.19400
C1233       C  0.73799820  0.90512473  0.27208053    -0.20700
C1234       C  0.74871231  0.90530389  0.23325141    -0.19200
C1235       C  0.75408014  0.88736097  0.21285523     0.20000
C1236       C  0.74855310  0.86867303  0.23188833     0.02100
C1237       C  0.75342151  0.85099301  0.20982149    -0.14000
C1238       C  0.76258665  0.85184493  0.17056526    -0.11700
C1239       C  0.76792330  0.87023477  0.15180451     0.01600
C1240       C  0.76425410  0.88798291  0.17331361    -0.23900
H1241       H  0.72228909  0.83711460  0.34851616     0.09600
H1242       H  0.73696015  0.83594448  0.28086926     0.13200
H1243       H  0.71969205  0.90150773  0.34621385     0.11900
H1244       H  0.73406212  0.91930128  0.28693913     0.13100
H1245       H  0.75263455  0.91960811  0.21900644     0.12100
H1246       H  0.74964895  0.83624008  0.22178980     0.09200
H1247       H  0.76521108  0.83791373  0.15459012     0.12500
H1248       H  0.76775493  0.90228355  0.15891328     0.14400
C1249       C  0.72541996  0.87376233  0.65165878    -0.01200
C1250       C  0.76240981  0.87797444  0.66601765    -0.09200
C1251       C  0.76991494  0.87801178  0.70566272    -0.18000
C1252       C  0.74036437  0.87400844  0.73260732     0.04400
C1253       C  0.70255507  0.87034292  0.71806044     0.18600
C1254       C  0.69557468  0.86988918  0.67789666    -0.19400
C1255       C  0.67190795  0.86737138  0.74370124    -0.20700
C1256       C  0.67796288  0.86807992  0.78352728    -0.19200
C1257       C  0.71503821  0.87109732  0.79867854     0.20000
C1258       C  0.74693677  0.87370586  0.77342927     0.02100
C1259       C  0.78414317  0.87548745  0.79012617    -0.14000
C1260       C  0.78933971  0.87476879  0.83014779    -0.11700
C1261       C  0.75773458  0.87273714  0.85480154     0.01600
C1262       C  0.72057705  0.87113994  0.83899010    -0.23900
H1263       H  0.78595818  0.88115301  0.64642980     0.09600
H1264       H  0.79901754  0.88157684  0.71424891     0.13200
H1265       H  0.66671973  0.86692636  0.66709337     0.11900
H1266       H  0.64296585  0.86470095  0.73288287     0.13100
H1267       H  0.65356833  0.86592786  0.80261253     0.12100
H1268       H  0.80993014  0.87695653  0.77308395     0.09200
H1269       H  0.81826653  0.87598880  0.84193534     0.12500
H1270       H  0.69608607  0.86926791  0.85809943     0.14400
C1271       C  0.72526362  0.94966109  0.50036879    -0.01200
C1272       C  0.74965949  0.95837072  0.52819676    -0.09200
C1273       C  0.75826200  0.97877324  0.52728891    -0.18000
C1274       C  0.74282744  0.99129493  0.49819292     0.04400
C1275       C  0.71666232  0.98262080  0.47105629     0.18600
C1276       C  0.70818872  0.96200866  0.47233237    -0.19400
C1277       C  0.69951446  0.99452273  0.44247870    -0.20700
C1278       C  0.70796145  0.01484478  0.44008059    -0.19200
C1279       C  0.73427644  0.02370915  0.46577862     0.20000
C1280       C  0.75241680  0.01206659  0.49500895     0.02100
C1281       C  0.77975054  0.02169148  0.51933886    -0.14000
C1282       C  0.78794894  0.04210140  0.51535411    -0.11700
C1283       C  0.76917581  0.05362034  0.48718002     0.01600
C1284       C  0.74256336  0.04420909  0.46231824    -0.23900
H1285       H  0.76276160  0.94930375  0.55065133     0.09600
H1286       H  0.77722064  0.98425343  0.54972264     0.13200
H1287       H  0.68899563  0.95550973  0.45085125     0.11900
H1288       H  0.67942068  0.98806882  0.42181049     0.13100
H1289       H  0.69408057  0.02366040  0.41768697     0.12100
H1290       H  0.79546896  0.01385568  0.54161243     0.09200
H1291       H  0.80870694  0.04893842  0.53482627     0.12500
H1292       H  0.72803916  0.05287832  0.44010151     0.14400
C1293       C  0.06094897  0.87593676  0.47283242    -0.01200
C1294       C  0.04275845  0.88501369  0.50450186    -0.09200
C1295       C  0.00299874  0.88318055  0.50996483    -0.18000
C1296       C  0.97976315  0.87206367  0.48383002     0.04400
C1297       C  0.99804052  0.86335583  0.45109992     0.18600
C1298       C  0.03815572  0.86533040  0.44593481    -0.19400
C1299       C  0.97621575  0.85256928  0.42390320    -0.20700
C1300       C  0.93654034  0.85026137  0.42844538    -0.19200
C1301       C  0.91763923  0.85848975  0.46052908     0.20000
C1302       C  0.93910324  0.86936620  0.48886802     0.02100
C1303       C  0.91889128  0.87709228  0.52103594    -0.14000
C1304       C  0.87904244  0.87490169  0.52408305    -0.11700
C1305       C  0.85765837  0.86476383  0.49558474     0.01600
C1306       C  0.87729616  0.85620019  0.46418340    -0.23900
H1307       H  0.05943732  0.89332250  0.52571204     0.09600
H1308       H  0.99141633  0.89060155  0.53509846     0.13200
H1309       H  0.05172322  0.85821675  0.42122430     0.11900
H1310       H  0.98992733  0.84590707  0.39882268     0.13100
H1311       H  0.92052178  0.84195979  0.40669011     0.12100
H1312       H  0.93292410  0.88508715  0.54427239     0.09200
H1313       H  0.86471970  0.88149123  0.54887715     0.12500
H1314       H  0.86104546  0.84841502  0.44187478     0.14400
C1315       C  0.35913620  0.86418587  0.47167675    -0.01200
C1316       C  0.37777367  0.85423558  0.50209421    -0.09200
C1317       C  0.41740107  0.85665232  0.50828683    -0.18000
C1318       C  0.43976425  0.86911389  0.48396369     0.04400
C1319       C  0.42109857  0.87817993  0.45178889     0.18600
C1320       C  0.38123388  0.87578908  0.44616700    -0.19400
C1321       C  0.44220072  0.88981918  0.42567353    -0.20700
C1322       C  0.48163736  0.89264019  0.43075691    -0.19200
C1323       C  0.50076391  0.88434736  0.46265927     0.20000
C1324       C  0.47993988  0.87281049  0.49017493     0.02100
C1325       C  0.50016982  0.86567407  0.52290975    -0.14000
C1326       C  0.53970009  0.86894276  0.52706878    -0.11700
C1327       C  0.56062703  0.87934928  0.49879493     0.01600
C1328       C  0.54072684  0.88735276  0.46698824    -0.23900
H1329       H  0.36143002  0.84513205  0.52211490     0.09600
H1330       H  0.42965037  0.84862108  0.53241260     0.13200
H1331       H  0.36720873  0.88334698  0.42217361     0.11900
H1332       H  0.42813621  0.89669465  0.40096913     0.13100
H1333       H  0.49722578  0.90152112  0.40975167     0.12100
H1334       H  0.48627995  0.85749982  0.54582991     0.09200
H1335       H  0.55411209  0.86270270  0.55217684     0.12500
H1336       H  0.55645242  0.89558845  0.44510764     0.14400
C1337       C  0.06510511  0.70594621  0.50761203    -0.01200
C1338       C  0.09325166  0.71191593  0.53467766    -0.09200
C1339       C  0.11350883  0.72985230  0.53036593    -0.18000
C1340       C  0.10642267  0.74260472  0.49856001     0.04400
C1341       C  0.07656379  0.73703213  0.47220438     0.18600
C1342       C  0.05629516  0.71890260  0.47692906    -0.19400
C1343       C  0.06775820  0.74934026  0.44066301    -0.20700
C1344       C  0.08839357  0.76686440  0.43423480    -0.19200
C1345       C  0.11853933  0.77250478  0.45904968     0.20000
C1346       C  0.12805001  0.76053550  0.49166896     0.02100
C1347       C  0.15898495  0.76699497  0.51559904    -0.14000
C1348       C  0.17895381  0.78477934  0.50782753    -0.11700
C1349       C  0.16891497  0.79670295  0.47599173     0.01600
C1350       C  0.13893085  0.79023334  0.45151448    -0.23900
H1351       H  0.10070653  0.70234767  0.55886253     0.09600
H1352       H  0.13499366  0.73313548  0.55210948     0.13200
H1353       H  0.03456991  0.71456572  0.45585205     0.11900
H1354       H  0.04493144  0.74529603  0.42058466     0.13100
H1355       H  0.08087719  0.77601639  0.40944192     0.12100
H1356       H  0.16825696  0.75873223  0.54073927     0.09200
H1357       H  0.20166495  0.78947008  0.52747633     0.12500
H1358       H  0.13067133  0.79929417  0.42681457     0.14400
C1359       C  0.26269840  0.86632510  0.11654259    -0.01200
C1360       C  0.27842393  0.88192018  0.13874705    -0.09200
C1361       C  0.27048199  0.88358995  0.17816042    -0.18000
C1362       C  0.24645323  0.86956560  0.19701047     0.04400
C1363       C  0.23096955  0.85356798  0.17458544     0.18600
C1364       C  0.23900066  0.85214798  0.13477010    -0.19400
C1365       C  0.20759952  0.83907545  0.19204098    -0.20700
C1366       C  0.19949000  0.84003009  0.23144032    -0.19200
C1367       C  0.21424375  0.85560422  0.25433189     0.20000
C1368       C  0.23762056  0.87072007  0.23733541     0.02100
C1369       C  0.25133752  0.88628860  0.26151660    -0.14000
C1370       C  0.24346187  0.88642080  0.30100949    -0.11700
C1371       C  0.22133051  0.87123938  0.31793834     0.01600
C1372       C  0.20619138  0.85602995  0.29426829    -0.23900
H1373       H  0.29667486  0.89313738  0.12551796     0.09600
H1374       H  0.28375468  0.89602972  0.19297768     0.13200
H1375       H  0.22665660  0.83997993  0.11795639     0.11900
H1376       H  0.19571065  0.82682374  0.17514541     0.13100
H1377       H  0.18161328  0.82846845  0.24411421     0.12100
H1378       H  0.26845822  0.89856173  0.25096846     0.09200
H1379       H  0.25506632  0.89852294  0.31848157     0.12500
H1380       H  0.18898089  0.84422686  0.30706844     0.14400
C1381       C  0.22675142  0.87090062  0.61677662    -0.01200
C1382       C  0.24927394  0.85566818  0.63326114    -0.09200
C1383       C  0.25851090  0.85583832  0.67252856    -0.18000
C1384       C  0.24550159  0.87138616  0.69705110     0.04400
C1385       C  0.22199967  0.88664643  0.68055711     0.18600
C1386       C  0.21302593  0.88634556  0.64073325    -0.19400
C1387       C  0.20746425  0.90204006  0.70397157    -0.20700
C1388       C  0.21510063  0.90236322  0.74358091    -0.19200
C1389       C  0.23811106  0.88752478  0.76064839     0.20000
C1390       C  0.25442296  0.87210038  0.73745446     0.02100
C1391       C  0.27892769  0.85801824  0.75573408    -0.14000
C1392       C  0.28542700  0.85865792  0.79557522    -0.11700
C1393       C  0.26778057  0.87324621  0.81870079     0.01600
C1394       C  0.24460350  0.88787128  0.80089478    -0.23900
H1395       H  0.26009496  0.84344247  0.61568063     0.09600
H1396       H  0.27556216  0.84344557  0.68275987     0.13200
H1397       H  0.19551456  0.89820189  0.62840461     0.11900
H1398       H  0.18959862  0.91375758  0.69166834     0.13100
H1399       H  0.20285882  0.91429193  0.76099964     0.12100
H1400       H  0.29353057  0.84629101  0.74015879     0.09200
H1401       H  0.30375243  0.84730206  0.80842553     0.12500
H1402       H  0.23126838  0.89944811  0.81840229     0.14400
C1403       C  0.22626167  0.94817955  0.46995881    -0.01200
C1404       C  0.24978868  0.95703358  0.44183656    -0.09200
C1405       C  0.25830083  0.97745454  0.44304867    -0.18000
C1406       C  0.24372605  0.98985795  0.47283662     0.04400
C1407       C  0.21909872  0.98094908  0.50081523     0.18600
C1408       C  0.21050603  0.96034071  0.49906837    -0.19400
C1409       C  0.20363753  0.99260573  0.53072100    -0.20700
C1410       C  0.21226083  0.01292024  0.53361878    -0.19200
C1411       C  0.23675029  0.02209701  0.50680746     0.20000
C1412       C  0.25290834  0.01071075  0.47603471     0.02100
C1413       C  0.27779955  0.02068387  0.45002013    -0.14000
C1414       C  0.28604446  0.04106725  0.45425592    -0.11700
C1415       C  0.26974856  0.05231938  0.48432380     0.01600
C1416       C  0.24511494  0.04265254  0.51057100    -0.23900
H1417       H  0.26216503  0.94808017  0.41880112     0.09600
H1418       H  0.27665402  0.98299240  0.42039827     0.13200
H1419       H  0.19229937  0.95368698  0.52101429     0.11900
H1420       H  0.18482963  0.98594743  0.55213476     0.13100
H1421       H  0.19981832  0.02150131  0.55715439     0.12100
H1422       H  0.29138079  0.01320172  0.42602135     0.09200
H1423       H  0.30482928  0.04812289  0.43333335     0.12500
H1424       H  0.23219544  0.05115917  0.53396171     0.14400
loop_ 
_geom_bond_atom_site_label_1 
_geom_bond_atom_site_label_2 
_geom_bond_distance 
_geom_bond_site_symmetry_2 
_ccdc_geom_bond_type 
Zn1           O5   1.934       .  S
Zn1           O6   1.995       .  S
Zn1          O10   1.992       .  S
Zn1          O17   1.994       .  S
Zn2           O5   1.968       .  S
Zn2           O7   2.039       .  S
Zn2           O9   2.041       .  S
Zn2          O13   2.039       .  S
Zn3           O5   1.955       .  S
Zn3           O8   2.039       .  S
Zn3          O11   2.017       .  S
Zn3          O14   1.999       .  S
Zn4           O5   1.963       .  S
Zn4          O12   2.043       .  S
Zn4          O15   1.997       .  S
Zn4          O16   2.044       .  S
O6           C18   1.272       .  A
O7           C19   1.279       .  A
O8           C20   1.276       .  A
O9           C18   1.276       .  A
O10          C20   1.271       .  A
O11          C19   1.275       .  A
O12          C21   1.277       .  A
O13          C22   1.276       .  A
O14          C21   1.272       .  A
O15          C22   1.272       .  A
O16          C23   1.277       .  A
O17          C23   1.271       .  A
C18        C1403   1.484       .  S
C19        C1293   1.489       .  S
C20        C1371   1.481       .  S
C21        C1349   1.487       .  S
C22        C1381   1.484       .  S
C23        C1315   1.482       .  S
Zn24         O28   1.979       .  S
Zn24         O29   2.030       .  S
Zn24         O33   2.077       .  S
Zn24         O40   2.073       .  S
Zn25         O28   1.966       .  S
Zn25         O30   2.042       .  S
Zn25         O32   2.035       .  S
Zn25         O36   2.040       .  S
Zn26         O28   1.945       .  S
Zn26         O31   1.988       .  S
Zn26         O34   1.992       .  S
Zn26         O37   2.033       .  S
Zn27         O28   1.929       .  S
Zn27         O35   1.998       .  S
Zn27         O38   1.996       .  S
Zn27         O39   1.983       .  S
O29          C41   1.276       .  A
O30          C42   1.278       .  A
O31          C43   1.271       .  A
O32          C41   1.276       .  A
O33          C43   1.281       .  A
O34          C42   1.272       .  A
O35          C44   1.271       .  A
O36          C45   1.276       .  A
O37          C44   1.274       .  A
O38          C45   1.272       .  A
O39          C46   1.271       .  A
O40          C46   1.281       .  A
C41        C1227   1.484       .  S
C42        C1327   1.483       .  S
C43        C1205   1.481       .  S
C44        C1249   1.480       .  S
C45        C1271   1.483       .  S
C46        C1305   1.485       .  S
Zn47         O51   1.937       .  S
Zn47         O52   2.011       .  S
Zn47         O56   1.968       .  S
Zn47         O63   2.013       .  S
Zn48         O51   1.963       .  S
Zn48         O53   2.023       .  S
Zn48         O55   2.041       .  S
Zn48         O59   2.046       .  S
Zn49         O51   1.976       .  S
Zn49         O54   2.064       .  S
Zn49         O57   2.030       .  S
Zn49         O60   2.060       .  S
Zn50         O51   1.944       .  S
Zn50         O58   1.994       .  S
Zn50         O61   1.976       .  S
Zn50         O62   2.012       .  S
O52          C64   1.273       .  A
O53          C65   1.274       .  A
O54          C66   1.280       .  A
O55          C64   1.277       .  A
O56          C66   1.270       .  A
O57          C65   1.275       .  A
O58          C67   1.270       .  A
O59          C68   1.278       .  A
O60          C67   1.278       .  A
O61          C68   1.271       .  A
O62          C69   1.271       .  A
O63          C69   1.272       .  A
C64        C1415   1.487       .  S
C65        C1173   1.482       .  S
C66        C1117   1.484       .  S
C67        C1151   1.475       .  S
C68        C1095   1.481       .  S
C69        C1183   1.474       .  S
Zn70         O74   1.949       .  S
Zn70         O75   2.012       .  S
Zn70         O79   2.025       .  S
Zn70         O86   1.998       .  S
Zn71         O74   1.959       .  S
Zn71         O76   2.032       .  S
Zn71         O78   2.030       .  S
Zn71         O82   2.006       .  S
Zn72         O74   1.933       .  S
Zn72         O77   1.980       .  S
Zn72         O80   1.974       .  S
Zn72         O83   1.986       .  S
Zn73         O74   1.969       .  S
Zn73         O81   2.049       .  S
Zn73         O84   2.044       .  S
Zn73         O85   2.051       .  S
O75          C87   1.273       .  A
O76          C88   1.275       .  A
O77          C89   1.269       .  A
O78          C87   1.275       .  A
O79          C89   1.274       .  A
O80          C88   1.269       .  A
O81          C90   1.277       .  A
O82          C91   1.274       .  A
O83          C90   1.270       .  A
O84          C91   1.278       .  A
O85          C92   1.280       .  A
O86          C92   1.273       .  A
C87        C1041   1.484       .  S
C88        C1107   1.476       .  S
C89        C1063   1.478       .  S
C90        C1283   1.484       .  S
C91        C1073   1.486       .  S
C92        C1129   1.485       .  S
Zn93         O97   1.962   1_554  S
Zn93         O98   2.034   1_554  S
Zn93        O102   2.033   1_554  S
Zn93        O109   2.020       .  S
Zn94         O97   1.940       .  S
Zn94         O99   2.016       .  S
Zn94        O101   1.998       .  S
Zn94        O105   1.994       .  S
Zn95         O97   1.948       .  S
Zn95        O100   2.018       .  S
Zn95        O103   2.022       .  S
Zn95        O106   1.997       .  S
Zn96         O97   1.975       .  S
Zn96        O104   2.051       .  S
Zn96        O107   2.061       .  S
Zn96        O108   2.019   1_556  S
O98         C110   1.275       .  A
O99         C111   1.273       .  A
O100        C112   1.274       .  A
O101        C110   1.272       .  A
O102        C112   1.276       .  A
O103        C111   1.276       .  A
O104        C113   1.279       .  A
O105        C114   1.272       .  A
O106        C113   1.272       .  A
O107        C114   1.279       .  A
O108        C115   1.274       .  A
O109        C115   1.276       .  A
C110       C1007   1.481       .  S
C111       C1393   1.482       .  S
C112        C941   1.481       .  S
C113        C985   1.487       .  S
C114        C963   1.487       .  S
C115       C1359   1.483       .  S
Zn116       O120   1.945   1_556  S
Zn116       O121   1.990       .  S
Zn116       O125   2.014       .  S
Zn116       O132   2.010       .  S
Zn117       O120   1.978       .  S
Zn117       O122   2.072       .  S
Zn117       O124   2.066       .  S
Zn117       O128   2.075       .  S
Zn118       O120   1.929   1_556  S
Zn118       O123   2.005       .  S
Zn118       O126   1.993       .  S
Zn118       O129   1.971       .  S
Zn119       O120   1.957       .  S
Zn119       O127   2.068       .  S
Zn119       O130   1.997       .  S
Zn119       O131   2.035       .  S
O121        C133   1.271       .  A
O122        C134   1.279       .  A
O123        C135   1.271       .  A
O124        C133   1.281   1_554  A
O125        C135   1.273       .  A
O126        C134   1.271   1_556  A
O127        C136   1.278       .  A
O128        C137   1.282       .  A
O129        C136   1.269   1_556  A
O130        C137   1.274       .  A
O131        C138   1.275       .  A
O132        C138   1.272   1_556  A
C133        C975   1.475       .  S
C134        C919   1.485   1_554  S
C135       C1261   1.471       .  S
C136        C953   1.474       .  S
C137       C1239   1.484       .  S
C138        C897   1.477       .  S
Zn139       O143   1.944       .  S
Zn139       O144   2.015       .  S
Zn139       O148   1.998       .  S
Zn139       O155   1.999       .  S
Zn140       O143   1.938       .  S
Zn140       O145   1.980       .  S
Zn140       O147   2.002       .  S
Zn140       O151   2.006       .  S
Zn141       O143   1.963   1_554  S
Zn141       O146   2.044       .  S
Zn141       O149   2.045       .  S
Zn141       O152   2.002       .  S
Zn142       O143   1.961   1_554  S
Zn142       O150   2.042       .  S
Zn142       O153   2.044       .  S
Zn142       O154   2.050       .  S
O144        C156   1.274       .  A
O145        C157   1.268       .  A
O146        C158   1.276   1_554  A
O147        C156   1.272       .  A
O148        C158   1.271       .  A
O149        C157   1.276   1_554  A
O150        C159   1.278       .  A
O151        C160   1.272       .  A
O152        C159   1.273       .  A
O153        C160   1.276   1_554  A
O154        C161   1.279   1_554  A
O155        C161   1.273       .  A
C156       C1195   1.475       .  S
C157        C853   1.464       .  S
C158        C875   1.486       .  S
C159       C1161   1.479       .  S
C160       C1019   1.473       .  S
C161        C831   1.481       .  S
Zn162       O166   1.963   1_554  S
Zn162       O167   2.023       .  S
Zn162       O171   2.025       .  S
Zn162       O178   2.048   1_554  S
Zn163       O166   1.948       .  S
Zn163       O168   2.015       .  S
Zn163       O170   2.021       .  S
Zn163       O174   2.031       .  S
Zn164       O166   1.965   1_554  S
Zn164       O169   2.001       .  S
Zn164       O172   2.050       .  S
Zn164       O175   2.052   1_554  S
Zn165       O166   1.935       .  S
Zn165       O173   1.998       .  S
Zn165       O176   2.013       .  S
Zn165       O177   2.014       .  S
O167        C179   1.276   1_554  A
O168        C180   1.274       .  A
O169        C181   1.274       .  A
O170        C179   1.276       .  A
O171        C181   1.275       .  A
O172        C180   1.277   1_554  A
O173        C182   1.271       .  A
O174        C183   1.277       .  A
O175        C182   1.277       .  A
O176        C183   1.275       .  A
O177        C184   1.273       .  A
O178        C184   1.277       .  A
C179        C865   1.484       .  S
C180        C809   1.492       .  S
C181       C1051   1.479       .  S
C182        C843   1.473       .  S
C183       C1085   1.485       .  S
C184        C931   1.485       .  S
Zn185       O189   1.966       .  S
Zn185       O190   2.052       .  S
Zn185       O194   2.004       .  S
Zn185       O201   2.050       .  S
Zn186       O189   1.931       .  S
Zn186       O191   2.004       .  S
Zn186       O193   1.979       .  S
Zn186       O197   2.006       .  S
Zn187       O189   1.960       .  S
Zn187       O192   2.027       .  S
Zn187       O195   2.041       .  S
Zn187       O198   2.038       .  S
Zn188       O189   1.946       .  S
Zn188       O196   2.013       .  S
Zn188       O199   2.036       .  S
Zn188       O200   2.006       .  S
O190        C202   1.278       .  A
O191        C203   1.272       .  A
O192        C204   1.275       .  A
O193        C202   1.270       .  A
O194        C204   1.272       .  A
O195        C203   1.276       .  A
O196        C205   1.275       .  A
O197        C206   1.273       .  A
O198        C205   1.276       .  A
O199        C206   1.275       .  A
O200        C207   1.273       .  A
O201        C207   1.279       .  A
C202        C699   1.476       .  S
C203        C787   1.472       .  S
C204        C743   1.482       .  S
C205        C733   1.477       .  S
C206        C777   1.486       .  S
C207       C1139   1.485       .  S
Zn208       O212   1.943       .  S
Zn208       O213   2.027       .  S
Zn208       O217   1.988       .  S
Zn208       O224   2.015       .  S
Zn209       O212   1.927       .  S
Zn209       O214   1.982   1_655  S
Zn209       O216   2.006       .  S
Zn209       O220   1.988       .  S
Zn210       O212   1.972       .  S
Zn210       O215   2.054       .  S
Zn210       O218   2.065   1_655  S
Zn210       O221   2.005       .  S
Zn211       O212   1.964       .  S
Zn211       O219   2.032       .  S
Zn211       O222   2.044       .  S
Zn211       O223   2.046       .  S
O213        C225   1.274       .  A
O214        C226   1.270       .  A
O215        C227   1.279       .  A
O216        C225   1.272       .  A
O217        C227   1.272       .  A
O218        C226   1.279       .  A
O219        C228   1.277       .  A
O220        C229   1.271       .  A
O221        C228   1.273       .  A
O222        C229   1.277       .  A
O223        C230   1.277       .  A
O224        C230   1.274       .  A
C225        C655   1.482       .  S
C226        C721   1.481       .  S
C227       C1029   1.480       .  S
C228        C633   1.484       .  S
C229        C677   1.476       .  S
C230        C711   1.478       .  S
Zn231       O235   1.934   1_655  S
Zn231       O236   1.964       .  S
Zn231       O240   1.995       .  S
Zn231       O247   2.011       .  S
Zn232       O235   1.972       .  S
Zn232       O237   2.058       .  S
Zn232       O239   2.065   1_455  S
Zn232       O243   2.017       .  S
Zn233       O235   1.950       .  S
Zn233       O238   2.026       .  S
Zn233       O241   1.996       .  S
Zn233       O244   1.997       .  S
Zn234       O235   1.964       .  S
Zn234       O242   2.032       .  S
Zn234       O245   2.034       .  S
Zn234       O246   2.027       .  S
O236        C248   1.269       .  A
O237        C249   1.279       .  A
O238        C250   1.274       .  A
O239        C248   1.278       .  A
O240        C250   1.270   1_655  A
O241        C249   1.272       .  A
O242        C251   1.276       .  A
O243        C252   1.276       .  A
O244        C251   1.272       .  A
O245        C252   1.276       .  A
O246        C253   1.274       .  A
O247        C253   1.272   1_655  A
C248        C545   1.475       .  S
C249       C1337   1.489       .  S
C250        C611   1.470       .  S
C251        C579   1.475       .  S
C252        C589   1.479       .  S
C253        C689   1.476       .  S
Zn254       O258   1.929       .  S
Zn254       O259   1.973       .  S
Zn254       O263   2.001       .  S
Zn254       O270   1.983       .  S
Zn255       O258   1.977       .  S
Zn255       O260   2.052       .  S
Zn255       O262   2.057       .  S
Zn255       O266   2.034       .  S
Zn256       O258   1.942       .  S
Zn256       O261   2.035       .  S
Zn256       O264   2.008       .  S
Zn256       O267   2.012       .  S
Zn257       O258   1.957       .  S
Zn257       O265   2.024       .  S
Zn257       O268   2.011       .  S
Zn257       O269   2.051       .  S
O259        C271   1.269       .  A
O260        C272   1.278       .  A
O261        C273   1.277       .  A
O262        C271   1.278       .  A
O263        C273   1.272       .  A
O264        C272   1.274       .  A
O265        C274   1.275       .  A
O266        C275   1.276       .  A
O267        C274   1.274       .  A
O268        C275   1.275       .  A
O269        C276   1.277       .  A
O270        C276   1.270       .  A
C271        C567   1.473       .  S
C272       C1217   1.484       .  S
C273        C523   1.484       .  S
C274        C557   1.477       .  S
C275        C513   1.486       .  S
C276        C799   1.480       .  S
Zn277       O281   1.938   1_655  S
Zn277       O282   1.987   1_655  S
Zn277       O286   1.991       .  S
Zn277       O293   1.996       .  S
Zn278       O281   1.957       .  S
Zn278       O283   2.001       .  S
Zn278       O285   2.045       .  S
Zn278       O289   1.999       .  S
Zn279       O281   1.970   1_556  S
Zn279       O284   2.035   1_455  S
Zn279       O287   2.038       .  S
Zn279       O290   2.004       .  S
Zn280       O281   1.981   1_556  S
Zn280       O288   2.052       .  S
Zn280       O291   2.062       .  S
Zn280       O292   2.058       .  S
O282        C294   1.270       .  A
O283        C295   1.272       .  A
O284        C296   1.275   1_556  A
O285        C294   1.275       .  A
O286        C296   1.270       .  A
O287        C295   1.276   1_556  A
O288        C297   1.279       .  A
O289        C298   1.273       .  A
O290        C297   1.273       .  A
O291        C298   1.280   1_556  A
O292        C299   1.278   1_556  A
O293        C299   1.272   1_655  A
C294        C645   1.483       .  S
C295        C887   1.486       .  S
C296        C447   1.468       .  S
C297        C667   1.488       .  S
C298        C469   1.482       .  S
C299        C491   1.489       .  S
Zn300       O304   1.931       .  S
Zn300       O305   2.009       .  S
Zn300       O309   1.987       .  S
Zn300       O316   1.989       .  S
Zn301       O304   1.928       .  S
Zn301       O306   1.992       .  S
Zn301       O308   2.013       .  S
Zn301       O312   1.992       .  S
Zn302       O304   1.960   1_556  S
Zn302       O307   2.047       .  S
Zn302       O310   2.054       .  S
Zn302       O313   2.024       .  S
Zn303       O304   1.968   1_556  S
Zn303       O311   2.025       .  S
Zn303       O314   2.072   1_556  S
Zn303       O315   2.077       .  S
O305        C317   1.272       .  A
O306        C318   1.271       .  A
O307        C319   1.278   1_556  A
O308        C317   1.273       .  A
O309        C319   1.272       .  A
O310        C318   1.277   1_556  A
O311        C320   1.275       .  A
O312        C321   1.272       .  A
O313        C320   1.276       .  A
O314        C321   1.282       .  A
O315        C322   1.281   1_556  A
O316        C322   1.271       .  A
C317        C755   1.482       .  S
C318        C413   1.478       .  S
C319        C435   1.480       .  S
C320        C765   1.485       .  S
C321        C457   1.483       .  S
C322        C821   1.493       .  S
Zn323       O327   1.936       .  S
Zn323       O328   2.002       .  S
Zn323       O332   1.988       .  S
Zn323       O339   2.006       .  S
Zn324       O327   1.947       .  S
Zn324       O329   1.996       .  S
Zn324       O331   2.036       .  S
Zn324       O335   1.995       .  S
Zn325       O327   1.961   1_556  S
Zn325       O330   2.042   1_556  S
Zn325       O333   2.051       .  S
Zn325       O336   1.993       .  S
Zn326       O327   1.973   1_556  S
Zn326       O334   2.039       .  S
Zn326       O337   2.033       .  S
Zn326       O338   2.045       .  S
O328        C340   1.272       .  A
O329        C341   1.271       .  A
O330        C342   1.278       .  A
O331        C340   1.275       .  A
O332        C342   1.272       .  A
O333        C341   1.277   1_556  A
O334        C343   1.275       .  A
O335        C344   1.274       .  A
O336        C343   1.272       .  A
O337        C344   1.278   1_556  A
O338        C345   1.276   1_556  A
O339        C345   1.272       .  A
C340        C501   1.485       .  S
C341        C997   1.489       .  S
C342        C369   1.477       .  S
C343        C535   1.483       .  S
C344        C403   1.480       .  S
C345        C425   1.478       .  S
Zn346       O350   1.946   1_556  S
Zn346       O351   2.027       .  S
Zn346       O355   1.988       .  S
Zn346       O362   1.988       .  S
Zn347       O350   1.932   1_556  S
Zn347       O352   1.965   1_655  S
Zn347       O354   1.997       .  S
Zn347       O358   2.000       .  S
Zn348       O350   1.977       .  S
Zn348       O353   2.060       .  S
Zn348       O356   2.049   1_655  S
Zn348       O359   2.023       .  S
Zn349       O350   1.969       .  S
Zn349       O357   2.046       .  S
Zn349       O360   2.048       .  S
Zn349       O361   2.055       .  S
O351        C363   1.272       .  A
O352        C364   1.269   1_556  A
O353        C365   1.278       .  A
O354        C363   1.270       .  A
O355        C365   1.271   1_556  A
O356        C364   1.278       .  A
O357        C366   1.278       .  A
O358        C367   1.272   1_556  A
O359        C366   1.275       .  A
O360        C367   1.277       .  A
O361        C368   1.280       .  A
O362        C368   1.272   1_556  A
C363        C623   1.479       .  S
C364        C391   1.478       .  S
C365        C909   1.483       .  S
C366        C601   1.486       .  S
C367        C479   1.488       .  S
C368        C381   1.484       .  S
C369        C370   1.401       .  A
C369        C374   1.400   1_554  A
C370        C371   1.393       .  A
C370        H383   1.084       .  S
C371        C372   1.412       .  A
C371        H384   1.077       .  S
C372        C378   1.430       .  A
C372        C373   1.425   1_554  A
C373        C375   1.399       .  A
C373        C374   1.408       .  A
C374        H385   1.085       .  S
C375        C376   1.390       .  A
C375        H386   1.084       .  S
C376        C377   1.401       .  A
C376        H387   1.084       .  S
C377        C378   1.420   1_556  A
C377        C382   1.403       .  A
C378        C379   1.418       .  A
C379        C380   1.399       .  A
C379        H388   1.077       .  S
C380        C381   1.400       .  A
C380        H389   1.083       .  S
C381        C382   1.406   1_554  A
C382        H390   1.084       .  S
C391        C392   1.403   1_554  A
C391        C396   1.400       .  A
C392        C393   1.390       .  A
C392        H405   1.084       .  S
C393        C394   1.411   1_556  A
C393        H406   1.076       .  S
C394        C400   1.428       .  A
C394        C395   1.424       .  A
C395        C397   1.398       .  A
C395        C396   1.407       .  A
C396        H407   1.084       .  S
C397        C398   1.390       .  A
C397        H408   1.084       .  S
C398        C399   1.400       .  A
C398        H409   1.084       .  S
C399        C400   1.420       .  A
C399        C404   1.402       .  A
C400        C401   1.417   1_554  A
C401        C402   1.396       .  A
C401        H410   1.076       .  S
C402        C403   1.399   1_556  A
C402        H411   1.083       .  S
C403        C404   1.404       .  A
C404        H412   1.084       .  S
C413        C414   1.400   1_554  A
C413        C418   1.401       .  A
C414        C415   1.401       .  A
C414        H427   1.083       .  S
C415        C416   1.417   1_556  A
C415        H428   1.078       .  S
C416        C422   1.431       .  A
C416        C417   1.421       .  A
C417        C419   1.399       .  A
C417        C418   1.403       .  A
C418        H429   1.085       .  S
C419        C420   1.390       .  A
C419        H430   1.084       .  S
C420        C421   1.399       .  A
C420        H431   1.084       .  S
C421        C422   1.422       .  A
C421        C426   1.405       .  A
C422        C423   1.415   1_554  A
C423        C424   1.400       .  A
C423        H432   1.078       .  S
C424        C425   1.400   1_556  A
C424        H433   1.083       .  S
C425        C426   1.401       .  A
C426        H434   1.085       .  S
C435        C436   1.402       .  A
C435        C440   1.401   1_554  A
C436        C437   1.394       .  A
C436        H449   1.083       .  S
C437        C438   1.413       .  A
C437        H450   1.077       .  S
C438        C444   1.429       .  A
C438        C439   1.423   1_554  A
C439        C441   1.399       .  A
C439        C440   1.406       .  A
C440        H451   1.084       .  S
C441        C442   1.390       .  A
C441        H452   1.084       .  S
C442        C443   1.399       .  A
C442        H453   1.084       .  S
C443        C444   1.423   1_556  A
C443        C448   1.404       .  A
C444        C445   1.416       .  A
C445        C446   1.396       .  A
C445        H454   1.077       .  S
C446        C447   1.397       .  A
C446        H455   1.084       .  S
C447        C448   1.398   1_554  A
C448        H456   1.085       .  S
C457        C458   1.404       .  A
C457        C462   1.399       .  A
C458        C459   1.397       .  A
C458        H471   1.084       .  S
C459        C460   1.412       .  A
C459        H472   1.078       .  S
C460        C466   1.433       .  A
C460        C461   1.426       .  A
C461        C463   1.398       .  A
C461        C462   1.410       .  A
C462        H473   1.084       .  S
C463        C464   1.390       .  A
C463        H474   1.084       .  S
C464        C465   1.400       .  A
C464        H475   1.084       .  S
C465        C466   1.420       .  A
C465        C470   1.404       .  A
C466        C467   1.420       .  A
C467        C468   1.403       .  A
C467        H476   1.078   1_554  S
C468        C469   1.399       .  A
C468        H477   1.083   1_554  S
C469        C470   1.403       .  A
C470        H478   1.085       .  S
C479        C480   1.401       .  A
C479        C484   1.405   1_654  A
C480        C481   1.400       .  A
C480        H493   1.083       .  S
C481        C482   1.417       .  A
C481        H494   1.077       .  S
C482        C488   1.433       .  A
C482        C483   1.421   1_654  A
C483        C485   1.400       .  A
C483        C484   1.405       .  A
C484        H495   1.084       .  S
C485        C486   1.390       .  A
C485        H496   1.084       .  S
C486        C487   1.399       .  A
C486        H497   1.084       .  S
C487        C488   1.424   1_456  A
C487        C492   1.409       .  A
C488        C489   1.413       .  A
C489        C490   1.396       .  A
C489        H498   1.077       .  S
C490        C491   1.404   1_655  A
C490        H499   1.083       .  S
C491        C492   1.402   1_554  A
C492        H500   1.084       .  S
C501        C502   1.402       .  A
C501        C506   1.403       .  A
C502        C503   1.400       .  A
C502        H515   1.083       .  S
C503        C504   1.416       .  A
C503        H516   1.078       .  S
C504        C510   1.432       .  A
C504        C505   1.422       .  A
C505        C507   1.399       .  A
C505        C506   1.403       .  A
C506        H517   1.085       .  S
C507        C508   1.388       .  A
C507        H518   1.084       .  S
C508        C509   1.399       .  A
C508        H519   1.084       .  S
C509        C510   1.422       .  A
C509        C514   1.403       .  A
C510        C511   1.416       .  A
C511        C512   1.400       .  A
C511        H520   1.078       .  S
C512        C513   1.403       .  A
C512        H521   1.083       .  S
C513        C514   1.402       .  A
C514        H522   1.084       .  S
C523        C524   1.399       .  A
C523        C528   1.406       .  A
C524        C525   1.395       .  A
C524        H537   1.083       .  S
C525        C526   1.416       .  A
C525        H538   1.077       .  S
C526        C532   1.428       .  A
C526        C527   1.420       .  A
C527        C529   1.401       .  A
C527        C528   1.406       .  A
C528        H539   1.084       .  S
C529        C530   1.392       .  A
C529        H540   1.084       .  S
C530        C531   1.400       .  A
C530        H541   1.084       .  S
C531        C532   1.424       .  A
C531        C536   1.410       .  A
C532        C533   1.411       .  A
C533        C534   1.391       .  A
C533        H542   1.076       .  S
C534        C535   1.402       .  A
C534        H543   1.083       .  S
C535        C536   1.404       .  A
C536        H544   1.084       .  S
C545        C546   1.398       .  A
C545        C550   1.400       .  A
C546        C547   1.403       .  A
C546        H559   1.083       .  S
C547        C548   1.419       .  A
C547        H560   1.078       .  S
C548        C554   1.431       .  A
C548        C549   1.421       .  A
C549        C551   1.399       .  A
C549        C550   1.398       .  A
C550        H561   1.086       .  S
C551        C552   1.386       .  A
C551        H562   1.084       .  S
C552        C553   1.398       .  A
C552        H563   1.084       .  S
C553        C554   1.424       .  A
C553        C558   1.402       .  A
C554        C555   1.415       .  A
C555        C556   1.399       .  A
C555        H564   1.078       .  S
C556        C557   1.402       .  A
C556        H565   1.083       .  S
C557        C558   1.398       .  A
C558        H566   1.085       .  S
C567        C568   1.401       .  A
C567        C572   1.399       .  A
C568        C569   1.391       .  A
C568        H581   1.084       .  S
C569        C570   1.411       .  A
C569        H582   1.078       .  S
C570        C576   1.428       .  A
C570        C571   1.425       .  A
C571        C573   1.399       .  A
C571        C572   1.409       .  A
C572        H583   1.084       .  S
C573        C574   1.391       .  A
C573        H584   1.084       .  S
C574        C575   1.401       .  A
C574        H585   1.084       .  S
C575        C576   1.420       .  A
C575        C580   1.403       .  A
C576        C577   1.417       .  A
C577        C578   1.397       .  A
C577        H586   1.078       .  S
C578        C579   1.397       .  A
C578        H587   1.083       .  S
C579        C580   1.403       .  A
C580        H588   1.085       .  S
C589        C590   1.401       .  A
C589        C594   1.399       .  A
C590        C591   1.402       .  A
C590        H603   1.083       .  S
C591        C592   1.417       .  A
C591        H604   1.078       .  S
C592        C598   1.433   1_455  A
C592        C593   1.422       .  A
C593        C595   1.398       .  A
C593        C594   1.403       .  A
C594        H605   1.085       .  S
C595        C596   1.388       .  A
C595        H606   1.084       .  S
C596        C597   1.399   1_455  A
C596        H607   1.084       .  S
C597        C598   1.423       .  A
C597        C602   1.405       .  A
C598        C599   1.416       .  A
C599        C600   1.402       .  A
C599        H608   1.078       .  S
C600        C601   1.403       .  A
C600        H609   1.083       .  S
C601        C602   1.402       .  A
C602        H610   1.084       .  S
C611        C612   1.400   1_455  A
C611        C616   1.396       .  A
C612        C613   1.396       .  A
C612        H625   1.084       .  S
C613        C614   1.414       .  A
C613        H626   1.078       .  S
C614        C620   1.429       .  A
C614        C615   1.425   1_655  A
C615        C617   1.398       .  A
C615        C616   1.404       .  A
C616        H627   1.085       .  S
C617        C618   1.388       .  A
C617        H628   1.084       .  S
C618        C619   1.399       .  A
C618        H629   1.084       .  S
C619        C620   1.420   1_455  A
C619        C624   1.400       .  A
C620        C621   1.417       .  A
C621        C622   1.400       .  A
C621        H630   1.078       .  S
C622        C623   1.400       .  A
C622        H631   1.083       .  S
C623        C624   1.401   1_655  A
C624        H632   1.085       .  S
C633        C634   1.400       .  A
C633        C638   1.405   1_655  A
C634        C635   1.396       .  A
C634        H647   1.083       .  S
C635        C636   1.416   1_655  A
C635        H648   1.077       .  S
C636        C642   1.429       .  A
C636        C637   1.420       .  A
C637        C639   1.401       .  A
C637        C638   1.405       .  A
C638        H649   1.084       .  S
C639        C640   1.391       .  A
C639        H650   1.084       .  S
C640        C641   1.400       .  A
C640        H651   1.084       .  S
C641        C642   1.424       .  A
C641        C646   1.409       .  A
C642        C643   1.411       .  A
C643        C644   1.392       .  A
C643        H652   1.077   1_455  S
C644        C645   1.402       .  A
C644        H653   1.083   1_455  S
C645        C646   1.402       .  A
C646        H654   1.084       .  S
C655        C656   1.401       .  A
C655        C660   1.401       .  A
C656        C657   1.400       .  A
C656        H669   1.083       .  S
C657        C658   1.417       .  A
C657        H670   1.077       .  S
C658        C664   1.432   1_655  A
C658        C659   1.422   1_655  A
C659        C661   1.399       .  A
C659        C660   1.403   1_455  A
C660        H671   1.085   1_655  S
C661        C662   1.388       .  A
C661        H672   1.084       .  S
C662        C663   1.398       .  A
C662        H673   1.084       .  S
C663        C664   1.424       .  A
C663        C668   1.407       .  A
C664        C665   1.413   1_455  A
C665        C666   1.398       .  A
C665        H674   1.078       .  S
C666        C667   1.405   1_655  A
C666        H675   1.083       .  S
C667        C668   1.401       .  A
C668        H676   1.084       .  S
C677        C678   1.401   1_655  A
C677        C682   1.400       .  A
C678        C679   1.393       .  A
C678        H691   1.084       .  S
C679        C680   1.412   1_455  A
C679        H692   1.077       .  S
C680        C686   1.429   1_655  A
C680        C681   1.424       .  A
C681        C683   1.399       .  A
C681        C682   1.408       .  A
C682        H693   1.084       .  S
C683        C684   1.391       .  A
C683        H694   1.084       .  S
C684        C685   1.400       .  A
C684        H695   1.084       .  S
C685        C686   1.421   1_655  A
C685        C690   1.405       .  A
C686        C687   1.416       .  A
C687        C688   1.397       .  A
C687        H696   1.077       .  S
C688        C689   1.398       .  A
C688        H697   1.083       .  S
C689        C690   1.401   1_455  A
C690        H698   1.085       .  S
C699        C700   1.399       .  A
C699        C704   1.400       .  A
C700        C701   1.402       .  A
C700        H713   1.083       .  S
C701        C702   1.418       .  A
C701        H714   1.077       .  S
C702        C708   1.432       .  A
C702        C703   1.422       .  A
C703        C705   1.399       .  A
C703        C704   1.401       .  A
C704        H715   1.085       .  S
C705        C706   1.388       .  A
C705        H716   1.084       .  S
C706        C707   1.398       .  A
C706        H717   1.084       .  S
C707        C708   1.423       .  A
C707        C712   1.404       .  A
C708        C709   1.416       .  A
C709        C710   1.401       .  A
C709        H718   1.077       .  S
C710        C711   1.400       .  A
C710        H719   1.083       .  S
C711        C712   1.399       .  A
C712        H720   1.085       .  S
C721        C722   1.400       .  A
C721        C726   1.403       .  A
C722        C723   1.392       .  A
C722        H735   1.084       .  S
C723        C724   1.413       .  A
C723        H736   1.076       .  S
C724        C730   1.431       .  A
C724        C725   1.424       .  A
C725        C727   1.401       .  A
C725        C726   1.413       .  A
C726        H737   1.084       .  S
C727        C728   1.394       .  A
C727        H738   1.084       .  S
C728        C729   1.401       .  A
C728        H739   1.084       .  S
C729        C730   1.422       .  A
C729        C734   1.410       .  A
C730        C731   1.416       .  A
C731        C732   1.394       .  A
C731        H740   1.076       .  S
C732        C733   1.397       .  A
C732        H741   1.084       .  S
C733        C734   1.403       .  A
C734        H742   1.085       .  S
C743        C744   1.403       .  A
C743        C748   1.401       .  A
C744        C745   1.396       .  A
C744        H757   1.083       .  S
C745        C746   1.414       .  A
C745        H758   1.077       .  S
C746        C752   1.430       .  A
C746        C747   1.423       .  A
C747        C749   1.399       .  A
C747        C748   1.404       .  A
C748        H759   1.084       .  S
C749        C750   1.389       .  A
C749        H760   1.084       .  S
C750        C751   1.399       .  A
C750        H761   1.084       .  S
C751        C752   1.422       .  A
C751        C756   1.403       .  A
C752        C753   1.415       .  A
C753        C754   1.396       .  A
C753        H762   1.077       .  S
C754        C755   1.401       .  A
C754        H763   1.083       .  S
C755        C756   1.402       .  A
C756        H764   1.084       .  S
C765        C766   1.400       .  A
C765        C770   1.405       .  A
C766        C767   1.396       .  A
C766        H779   1.084       .  S
C767        C768   1.416       .  A
C767        H780   1.074       .  S
C768        C774   1.431       .  A
C768        C769   1.421       .  A
C769        C771   1.401       .  A
C769        C770   1.408       .  A
C770        H781   1.084       .  S
C771        C772   1.392       .  A
C771        H782   1.084       .  S
C772        C773   1.400       .  A
C772        H783   1.084       .  S
C773        C774   1.422       .  A
C773        C778   1.410       .  A
C774        C775   1.413       .  A
C775        C776   1.394       .  A
C775        H784   1.074       .  S
C776        C777   1.402       .  A
C776        H785   1.083       .  S
C777        C778   1.404       .  A
C778        H786   1.084       .  S
C787        C788   1.400       .  A
C787        C792   1.397       .  A
C788        C789   1.397       .  A
C788        H801   1.084       .  S
C789        C790   1.414       .  A
C789        H802   1.078       .  S
C790        C796   1.430       .  A
C790        C791   1.425       .  A
C791        C793   1.398       .  A
C791        C792   1.406       .  A
C792        H803   1.085       .  S
C793        C794   1.389       .  A
C793        H804   1.084       .  S
C794        C795   1.400       .  A
C794        H805   1.084       .  S
C795        C796   1.420       .  A
C795        C800   1.401       .  A
C796        C797   1.418       .  A
C797        C798   1.401       .  A
C797        H806   1.078       .  S
C798        C799   1.399       .  A
C798        H807   1.083       .  S
C799        C800   1.403       .  A
C800        H808   1.085       .  S
C809        C810   1.402   1_556  A
C809        C814   1.406       .  A
C810        C811   1.402       .  A
C810        H823   1.083       .  S
C811        C812   1.418   1_554  A
C811        H824   1.078       .  S
C812        C818   1.435   1_556  A
C812        C813   1.420       .  A
C813        C815   1.401       .  A
C813        C814   1.406       .  A
C814        H825   1.084       .  S
C815        C816   1.391       .  A
C815        H826   1.084       .  S
C816        C817   1.399       .  A
C816        H827   1.084       .  S
C817        C818   1.425   1_556  A
C817        C822   1.412       .  A
C818        C819   1.412       .  A
C819        C820   1.397       .  A
C819        H828   1.078       .  S
C820        C821   1.407       .  A
C820        H829   1.083       .  S
C821        C822   1.403   1_554  A
C822        H830   1.084       .  S
C831        C832   1.398   1_556  A
C831        C836   1.404       .  A
C832        C833   1.400       .  A
C832        H845   1.083       .  S
C833        C834   1.418   1_454  A
C833        H846   1.077   1_455  S
C834        C840   1.431       .  A
C834        C835   1.420   1_655  A
C835        C837   1.401   1_455  A
C835        C836   1.404       .  A
C836        H847   1.085       .  S
C837        C838   1.391       .  A
C837        H848   1.084   1_655  S
C838        C839   1.399       .  A
C838        H849   1.084       .  S
C839        C840   1.426       .  A
C839        C844   1.410       .  A
C840        C841   1.413   1_556  A
C841        C842   1.394       .  A
C841        H850   1.077       .  S
C842        C843   1.399   1_554  A
C842        H851   1.084       .  S
C843        C844   1.399       .  A
C844        H852   1.085       .  S
C853        C854   1.396       .  A
C853        C858   1.397   1_556  A
C854        C855   1.396       .  A
C854        H867   1.084       .  S
C855        C856   1.416       .  A
C855        H868   1.077       .  S
C856        C862   1.430       .  A
C856        C857   1.424   1_556  A
C857        C859   1.399       .  A
C857        C858   1.405       .  A
C858        H869   1.085       .  S
C859        C860   1.390       .  A
C859        H870   1.084       .  S
C860        C861   1.400       .  A
C860        H871   1.084       .  S
C861        C862   1.422   1_554  A
C861        C866   1.406       .  A
C862        C863   1.415       .  A
C863        C864   1.396       .  A
C863        H872   1.077       .  S
C864        C865   1.402       .  A
C864        H873   1.083       .  S
C865        C866   1.403   1_556  A
C866        H874   1.084       .  S
C875        C876   1.404       .  A
C875        C880   1.402   1_556  A
C876        C877   1.396       .  A
C876        H889   1.083       .  S
C877        C878   1.413       .  A
C877        H890   1.077       .  S
C878        C884   1.432   1_556  A
C878        C879   1.424   1_556  A
C879        C881   1.399       .  A
C879        C880   1.408       .  A
C880        H891   1.084       .  S
C881        C882   1.389       .  A
C881        H892   1.084       .  S
C882        C883   1.400       .  A
C882        H893   1.084       .  S
C883        C884   1.420       .  A
C883        C888   1.403       .  A
C884        C885   1.417   1_554  A
C885        C886   1.400       .  A
C885        H894   1.077       .  S
C886        C887   1.402   1_556  A
C886        H895   1.083       .  S
C887        C888   1.404       .  A
C888        H896   1.084       .  S
C897        C898   1.401       .  A
C897        C902   1.399   1_554  A
C898        C899   1.400       .  A
C898        H911   1.083       .  S
C899        C900   1.415       .  A
C899        H912   1.078       .  S
C900        C906   1.433       .  A
C900        C901   1.424   1_554  A
C901        C903   1.398       .  A
C901        C902   1.405       .  A
C902        H913   1.085       .  S
C903        C904   1.388       .  A
C903        H914   1.084       .  S
C904        C905   1.399       .  A
C904        H915   1.084       .  S
C905        C906   1.421   1_556  A
C905        C910   1.401       .  A
C906        C907   1.418       .  A
C907        C908   1.404       .  A
C907        H916   1.078       .  S
C908        C909   1.401       .  A
C908        H917   1.083       .  S
C909        C910   1.403   1_554  A
C910        H918   1.085       .  S
C919        C920   1.403       .  A
C919        C924   1.402       .  A
C920        C921   1.397       .  A
C920        H933   1.084       .  S
C921        C922   1.412       .  A
C921        H934   1.077       .  S
C922        C928   1.433   1_565  A
C922        C923   1.425       .  A
C923        C925   1.400       .  A
C923        C924   1.412       .  A
C924        H935   1.084       .  S
C925        C926   1.392   1_565  A
C925        H936   1.084       .  S
C926        C927   1.401       .  A
C926        H937   1.084       .  S
C927        C928   1.421       .  A
C927        C932   1.407       .  A
C928        C929   1.418       .  A
C929        C930   1.401       .  A
C929        H938   1.077       .  S
C930        C931   1.400       .  A
C930        H939   1.083       .  S
C931        C932   1.404       .  A
C932        H940   1.084       .  S
C941        C942   1.403       .  A
C941        C946   1.398       .  A
C942        C943   1.400       .  A
C942        H955   1.083       .  S
C943        C944   1.414       .  A
C943        H956   1.078       .  S
C944        C950   1.433       .  A
C944        C945   1.425       .  A
C945        C947   1.398   1_556  A
C945        C946   1.405       .  A
C946        H957   1.085   1_556  S
C947        C948   1.387       .  A
C947        H958   1.084       .  S
C948        C949   1.398       .  A
C948        H959   1.084       .  S
C949        C950   1.421   1_554  A
C949        C954   1.399       .  A
C950        C951   1.420       .  A
C951        C952   1.405       .  A
C951        H960   1.078       .  S
C952        C953   1.399   1_556  A
C952        H961   1.083       .  S
C953        C954   1.399       .  A
C954        H962   1.085       .  S
C963        C964   1.404       .  A
C963        C968   1.403       .  A
C964        C965   1.394       .  A
C964        H977   1.083       .  S
C965        C966   1.411       .  A
C965        H978   1.077       .  S
C966        C972   1.431       .  A
C966        C967   1.424       .  A
C967        C969   1.400       .  A
C967        C968   1.412       .  A
C968        H979   1.084       .  S
C969        C970   1.393       .  A
C969        H980   1.084       .  S
C970        C971   1.401   1_455  A
C970        H981   1.084   1_455  S
C971        C972   1.421   1_655  A
C971        C976   1.406       .  A
C972        C973   1.419   1_455  A
C973        C974   1.399       .  A
C973        H982   1.077   1_655  S
C974        C975   1.396       .  A
C974        H983   1.083       .  S
C975        C976   1.403       .  A
C976        H984   1.085       .  S
C985        C986   1.405       .  A
C985        C990   1.402       .  A
C986        C987   1.397       .  A
C986        H999   1.083       .  S
C987        C988   1.413       .  A
C987       H1000   1.078       .  S
C988        C994   1.433       .  A
C988        C989   1.424   1_556  A
C989        C991   1.399       .  A
C989        C990   1.408   1_554  A
C990       H1001   1.084   1_556  S
C991        C992   1.390       .  A
C991       H1002   1.084       .  S
C992        C993   1.400       .  A
C992       H1003   1.084       .  S
C993        C994   1.420   1_554  A
C993        C998   1.404       .  A
C994        C995   1.418       .  A
C995        C996   1.402       .  A
C995       H1004   1.078       .  S
C996        C997   1.402   1_556  A
C996       H1005   1.083       .  S
C997        C998   1.405       .  A
C998       H1006   1.084       .  S
C1007      C1008   1.401       .  A
C1007      C1012   1.402       .  A
C1008      C1009   1.400   1_556  A
C1008      H1021   1.083   1_556  S
C1009      C1010   1.417   1_554  A
C1009      H1022   1.077       .  S
C1010      C1016   1.431   1_565  A
C1010      C1011   1.421       .  A
C1011      C1013   1.399       .  A
C1011      C1012   1.402       .  A
C1012      H1023   1.084       .  S
C1013      C1014   1.389   1_565  A
C1013      H1024   1.084       .  S
C1014      C1015   1.398       .  A
C1014      H1025   1.084       .  S
C1015      C1016   1.425       .  A
C1015      C1020   1.406       .  A
C1016      C1017   1.414   1_556  A
C1017      C1018   1.397       .  A
C1017      H1026   1.077       .  S
C1018      C1019   1.400   1_554  A
C1018      H1027   1.084       .  S
C1019      C1020   1.397       .  A
C1020      H1028   1.085       .  S
C1029      C1030   1.402       .  A
C1029      C1034   1.401       .  A
C1030      C1031   1.394       .  A
C1030      H1043   1.083       .  S
C1031      C1032   1.413       .  A
C1031      H1044   1.078       .  S
C1032      C1038   1.430       .  A
C1032      C1033   1.424       .  A
C1033      C1035   1.399       .  A
C1033      C1034   1.408       .  A
C1034      H1045   1.084       .  S
C1035      C1036   1.391       .  A
C1035      H1046   1.084       .  S
C1036      C1037   1.400       .  A
C1036      H1047   1.084       .  S
C1037      C1038   1.421       .  A
C1037      C1042   1.406       .  A
C1038      C1039   1.415       .  A
C1039      C1040   1.397       .  A
C1039      H1048   1.078       .  S
C1040      C1041   1.401       .  A
C1040      H1049   1.083       .  S
C1041      C1042   1.404       .  A
C1042      H1050   1.084       .  S
C1051      C1052   1.401       .  A
C1051      C1056   1.401       .  A
C1052      C1053   1.398       .  A
C1052      H1065   1.083       .  S
C1053      C1054   1.417       .  A
C1053      H1066   1.078       .  S
C1054      C1060   1.428       .  A
C1054      C1055   1.421       .  A
C1055      C1057   1.399       .  A
C1055      C1056   1.399       .  A
C1056      H1067   1.085       .  S
C1057      C1058   1.387       .  A
C1057      H1068   1.084       .  S
C1058      C1059   1.397       .  A
C1058      H1069   1.084       .  S
C1059      C1060   1.424       .  A
C1059      C1064   1.403       .  A
C1060      C1061   1.412       .  A
C1061      C1062   1.393       .  A
C1061      H1070   1.078       .  S
C1062      C1063   1.403       .  A
C1062      H1071   1.083       .  S
C1063      C1064   1.399       .  A
C1064      H1072   1.085       .  S
C1073      C1074   1.401       .  A
C1073      C1078   1.405       .  A
C1074      C1075   1.398       .  A
C1074      H1087   1.083       .  S
C1075      C1076   1.416       .  A
C1075      H1088   1.077       .  S
C1076      C1082   1.431       .  A
C1076      C1077   1.421       .  A
C1077      C1079   1.400       .  A
C1077      C1078   1.405       .  A
C1078      H1089   1.084       .  S
C1079      C1080   1.390       .  A
C1079      H1090   1.084       .  S
C1080      C1081   1.399       .  A
C1080      H1091   1.084       .  S
C1081      C1082   1.423       .  A
C1081      C1086   1.407       .  A
C1082      C1083   1.413       .  A
C1083      C1084   1.396       .  A
C1083      H1092   1.077       .  S
C1084      C1085   1.403       .  A
C1084      H1093   1.083       .  S
C1085      C1086   1.403       .  A
C1086      H1094   1.084       .  S
C1095      C1096   1.403       .  A
C1095      C1100   1.401       .  A
C1096      C1097   1.391       .  A
C1096      H1109   1.083       .  S
C1097      C1098   1.410       .  A
C1097      H1110   1.076       .  S
C1098      C1104   1.427       .  A
C1098      C1099   1.424       .  A
C1099      C1101   1.399       .  A
C1099      C1100   1.407       .  A
C1100      H1111   1.084       .  S
C1101      C1102   1.389       .  A
C1101      H1112   1.084       .  S
C1102      C1103   1.400       .  A
C1102      H1113   1.084       .  S
C1103      C1104   1.419       .  A
C1103      C1108   1.400       .  A
C1104      C1105   1.418       .  A
C1105      C1106   1.396       .  A
C1105      H1114   1.076       .  S
C1106      C1107   1.398       .  A
C1106      H1115   1.083       .  S
C1107      C1108   1.403       .  A
C1108      H1116   1.085       .  S
C1117      C1118   1.400       .  A
C1117      C1122   1.405       .  A
C1118      C1119   1.402       .  A
C1118      H1131   1.083       .  S
C1119      C1120   1.419       .  A
C1119      H1132   1.077       .  S
C1120      C1126   1.431       .  A
C1120      C1121   1.419       .  A
C1121      C1123   1.400       .  A
C1121      C1122   1.400       .  A
C1122      H1133   1.084       .  S
C1123      C1124   1.388       .  A
C1123      H1134   1.084       .  S
C1124      C1125   1.398   1_455  A
C1124      H1135   1.084       .  S
C1125      C1126   1.425   1_655  A
C1125      C1130   1.407       .  A
C1126      C1127   1.412   1_455  A
C1127      C1128   1.396       .  A
C1127      H1136   1.077   1_655  S
C1128      C1129   1.404       .  A
C1128      H1137   1.083       .  S
C1129      C1130   1.401       .  A
C1130      H1138   1.084       .  S
C1139      C1140   1.402       .  A
C1139      C1144   1.402       .  A
C1140      C1141   1.397       .  A
C1140      H1153   1.083       .  S
C1141      C1142   1.414       .  A
C1141      H1154   1.077       .  S
C1142      C1148   1.433       .  A
C1142      C1143   1.424       .  A
C1143      C1145   1.400       .  A
C1143      C1144   1.409       .  A
C1144      H1155   1.084       .  S
C1145      C1146   1.391       .  A
C1145      H1156   1.084       .  S
C1146      C1147   1.400       .  A
C1146      H1157   1.084       .  S
C1147      C1148   1.423       .  A
C1147      C1152   1.408       .  A
C1148      C1149   1.417       .  A
C1149      C1150   1.399       .  A
C1149      H1158   1.077       .  S
C1150      C1151   1.399       .  A
C1150      H1159   1.084       .  S
C1151      C1152   1.400       .  A
C1152      H1160   1.085       .  S
C1161      C1162   1.400       .  A
C1161      C1166   1.402       .  A
C1162      C1163   1.399       .  A
C1162      H1175   1.083       .  S
C1163      C1164   1.417       .  A
C1163      H1176   1.078       .  S
C1164      C1170   1.431       .  A
C1164      C1165   1.422       .  A
C1165      C1167   1.400       .  A
C1165      C1166   1.404       .  A
C1166      H1177   1.085       .  S
C1167      C1168   1.390       .  A
C1167      H1178   1.084       .  S
C1168      C1169   1.399       .  A
C1168      H1179   1.084       .  S
C1169      C1170   1.423       .  A
C1169      C1174   1.407       .  A
C1170      C1171   1.414       .  A
C1171      C1172   1.398       .  A
C1171      H1180   1.078       .  S
C1172      C1173   1.401       .  A
C1172      H1181   1.083       .  S
C1173      C1174   1.402       .  A
C1174      H1182   1.085       .  S
C1183      C1184   1.399       .  A
C1183      C1188   1.400       .  A
C1184      C1185   1.397       .  A
C1184      H1197   1.083       .  S
C1185      C1186   1.416       .  A
C1185      H1198   1.078       .  S
C1186      C1192   1.427       .  A
C1186      C1187   1.421       .  A
C1187      C1189   1.399       .  A
C1187      C1188   1.402       .  A
C1188      H1199   1.085       .  S
C1189      C1190   1.389       .  A
C1189      H1200   1.084       .  S
C1190      C1191   1.399       .  A
C1190      H1201   1.084       .  S
C1191      C1192   1.423       .  A
C1191      C1196   1.403       .  A
C1192      C1193   1.413       .  A
C1193      C1194   1.395       .  A
C1193      H1202   1.078       .  S
C1194      C1195   1.401       .  A
C1194      H1203   1.084       .  S
C1195      C1196   1.399       .  A
C1196      H1204   1.084       .  S
C1205      C1206   1.403       .  A
C1205      C1210   1.399       .  A
C1206      C1207   1.396       .  A
C1206      H1219   1.084       .  S
C1207      C1208   1.412       .  A
C1207      H1220   1.077       .  S
C1208      C1214   1.434       .  A
C1208      C1209   1.427       .  A
C1209      C1211   1.399       .  A
C1209      C1210   1.412       .  A
C1210      H1221   1.084       .  S
C1211      C1212   1.391       .  A
C1211      H1222   1.084       .  S
C1212      C1213   1.401       .  A
C1212      H1223   1.084       .  S
C1213      C1214   1.420       .  A
C1213      C1218   1.404       .  A
C1214      C1215   1.420       .  A
C1215      C1216   1.403       .  A
C1215      H1224   1.077       .  S
C1216      C1217   1.399       .  A
C1216      H1225   1.083       .  S
C1217      C1218   1.404       .  A
C1218      H1226   1.085       .  S
C1227      C1228   1.400       .  A
C1227      C1232   1.404       .  A
C1228      C1229   1.397       .  A
C1228      H1241   1.084       .  S
C1229      C1230   1.416       .  A
C1229      H1242   1.077       .  S
C1230      C1236   1.433       .  A
C1230      C1231   1.422       .  A
C1231      C1233   1.401       .  A
C1231      C1232   1.410       .  A
C1232      H1243   1.084       .  S
C1233      C1234   1.393       .  A
C1233      H1244   1.084       .  S
C1234      C1235   1.400       .  A
C1234      H1245   1.084       .  S
C1235      C1236   1.424       .  A
C1235      C1240   1.412       .  A
C1236      C1237   1.413       .  A
C1237      C1238   1.395       .  A
C1237      H1246   1.077       .  S
C1238      C1239   1.402       .  A
C1238      H1247   1.084       .  S
C1239      C1240   1.402       .  A
C1240      H1248   1.084       .  S
C1249      C1250   1.401       .  A
C1249      C1254   1.402       .  A
C1250      C1251   1.393       .  A
C1250      H1263   1.083       .  S
C1251      C1252   1.412       .  A
C1251      H1264   1.077       .  S
C1252      C1258   1.428       .  A
C1252      C1253   1.423       .  A
C1253      C1255   1.400       .  A
C1253      C1254   1.407       .  A
C1254      H1265   1.084       .  S
C1255      C1256   1.391       .  A
C1255      H1266   1.084       .  S
C1256      C1257   1.400       .  A
C1256      H1267   1.084       .  S
C1257      C1258   1.422       .  A
C1257      C1262   1.405       .  A
C1258      C1259   1.416       .  A
C1259      C1260   1.394       .  A
C1259      H1268   1.077       .  S
C1260      C1261   1.397       .  A
C1260      H1269   1.084       .  S
C1261      C1262   1.401       .  A
C1262      H1270   1.085       .  S
C1271      C1272   1.403       .  A
C1271      C1276   1.402       .  A
C1272      C1273   1.394       .  A
C1272      H1285   1.083       .  S
C1273      C1274   1.412       .  A
C1273      H1286   1.077       .  S
C1274      C1280   1.430   1_565  A
C1274      C1275   1.424       .  A
C1275      C1277   1.399       .  A
C1275      C1276   1.407       .  A
C1276      H1287   1.084       .  S
C1277      C1278   1.390   1_565  A
C1277      H1288   1.084       .  S
C1278      C1279   1.400       .  A
C1278      H1289   1.084       .  S
C1279      C1280   1.420       .  A
C1279      C1284   1.403       .  A
C1280      C1281   1.417       .  A
C1281      C1282   1.398       .  A
C1281      H1290   1.077       .  S
C1282      C1283   1.400       .  A
C1282      H1291   1.083       .  S
C1283      C1284   1.405       .  A
C1284      H1292   1.084       .  S
C1293      C1294   1.401       .  A
C1293      C1298   1.407       .  A
C1294      C1295   1.397       .  A
C1294      H1307   1.083       .  S
C1295      C1296   1.416   1_455  A
C1295      H1308   1.077   1_455  S
C1296      C1302   1.432       .  A
C1296      C1297   1.421       .  A
C1297      C1299   1.401       .  A
C1297      C1298   1.409   1_655  A
C1298      H1309   1.084       .  S
C1299      C1300   1.393       .  A
C1299      H1310   1.084       .  S
C1300      C1301   1.400       .  A
C1300      H1311   1.084       .  S
C1301      C1302   1.425       .  A
C1301      C1306   1.413       .  A
C1302      C1303   1.412       .  A
C1303      C1304   1.393       .  A
C1303      H1312   1.077       .  S
C1304      C1305   1.403       .  A
C1304      H1313   1.084       .  S
C1305      C1306   1.403       .  A
C1306      H1314   1.084       .  S
C1315      C1316   1.400       .  A
C1315      C1320   1.404       .  A
C1316      C1317   1.399       .  A
C1316      H1329   1.083       .  S
C1317      C1318   1.417       .  A
C1317      H1330   1.078       .  S
C1318      C1324   1.430       .  A
C1318      C1319   1.420       .  A
C1319      C1321   1.400       .  A
C1319      C1320   1.404       .  A
C1320      H1331   1.085       .  S
C1321      C1322   1.390       .  A
C1321      H1332   1.084       .  S
C1322      C1323   1.399       .  A
C1322      H1333   1.084       .  S
C1323      C1324   1.423       .  A
C1323      C1328   1.407       .  A
C1324      C1325   1.412       .  A
C1325      C1326   1.394       .  A
C1325      H1334   1.078       .  S
C1326      C1327   1.404       .  A
C1326      H1335   1.083       .  S
C1327      C1328   1.402       .  A
C1328      H1336   1.084       .  S
C1337      C1338   1.406       .  A
C1337      C1342   1.402       .  A
C1338      C1339   1.396       .  A
C1338      H1351   1.083       .  S
C1339      C1340   1.412       .  A
C1339      H1352   1.078       .  S
C1340      C1346   1.433       .  A
C1340      C1341   1.425       .  A
C1341      C1343   1.399       .  A
C1341      C1342   1.409       .  A
C1342      H1353   1.084       .  S
C1343      C1344   1.390       .  A
C1343      H1354   1.084       .  S
C1344      C1345   1.400       .  A
C1344      H1355   1.084       .  S
C1345      C1346   1.420       .  A
C1345      C1350   1.404       .  A
C1346      C1347   1.418       .  A
C1347      C1348   1.401       .  A
C1347      H1356   1.078       .  S
C1348      C1349   1.402       .  A
C1348      H1357   1.083       .  S
C1349      C1350   1.405       .  A
C1350      H1358   1.084       .  S
C1359      C1360   1.400       .  A
C1359      C1364   1.405       .  A
C1360      C1361   1.394       .  A
C1360      H1373   1.083       .  S
C1361      C1362   1.415       .  A
C1361      H1374   1.076       .  S
C1362      C1368   1.429       .  A
C1362      C1363   1.421       .  A
C1363      C1365   1.401       .  A
C1363      C1364   1.407       .  A
C1364      H1375   1.084       .  S
C1365      C1366   1.392       .  A
C1365      H1376   1.084       .  S
C1366      C1367   1.400       .  A
C1366      H1377   1.084       .  S
C1367      C1368   1.423       .  A
C1367      C1372   1.409       .  A
C1368      C1369   1.413       .  A
C1369      C1370   1.392       .  A
C1369      H1378   1.077       .  S
C1370      C1371   1.401       .  A
C1370      H1379   1.083       .  S
C1371      C1372   1.402       .  A
C1372      H1380   1.084       .  S
C1381      C1382   1.402       .  A
C1381      C1386   1.404       .  A
C1382      C1383   1.392       .  A
C1382      H1395   1.083       .  S
C1383      C1384   1.412       .  A
C1383      H1396   1.076       .  S
C1384      C1390   1.429       .  A
C1384      C1385   1.422       .  A
C1385      C1387   1.400       .  A
C1385      C1386   1.409       .  A
C1386      H1397   1.084       .  S
C1387      C1388   1.393       .  A
C1387      H1398   1.084       .  S
C1388      C1389   1.401       .  A
C1388      H1399   1.084       .  S
C1389      C1390   1.421       .  A
C1389      C1394   1.407       .  A
C1390      C1391   1.415       .  A
C1391      C1392   1.394       .  A
C1391      H1400   1.076       .  S
C1392      C1393   1.399       .  A
C1392      H1401   1.083       .  S
C1393      C1394   1.405       .  A
C1394      H1402   1.084       .  S
C1403      C1404   1.402       .  A
C1403      C1408   1.402       .  A
C1404      C1405   1.395       .  A
C1404      H1417   1.083       .  S
C1405      C1406   1.413       .  A
C1405      H1418   1.076       .  S
C1406      C1412   1.431   1_565  A
C1406      C1407   1.423       .  A
C1407      C1409   1.400       .  A
C1407      C1408   1.408       .  A
C1408      H1419   1.084       .  S
C1409      C1410   1.391   1_565  A
C1409      H1420   1.084       .  S
C1410      C1411   1.401       .  A
C1410      H1421   1.084       .  S
C1411      C1412   1.421       .  A
C1411      C1416   1.407       .  A
C1412      C1413   1.416       .  A
C1413      C1414   1.397       .  A
C1413      H1422   1.076       .  S
C1414      C1415   1.400       .  A
C1414      H1423   1.083       .  S
C1415      C1416   1.406       .  A
C1416      H1424   1.084       .  S
