geometry optimzed in LAMMPS
_audit_creation_date              2020-12-01 
_audit_creation_method            'lammps2cif' 
_symmetry_space_group_name_H-M    'P1' 
_symmetry_Int_Tables_number       1 
_symmetry_cell_setting            triclinic 
loop_ 
_symmetry_equiv_pos_as_xyz 
  x,y,z 
_cell_length_a                    35.14805446 
_cell_length_b                    41.057157018077156 
_cell_length_c                    42.294083006683394 
_cell_angle_alpha                 90.16537931982005 
_cell_angle_beta                  89.64307792758056 
_cell_angle_gamma                 90.19108344143213 
loop_ 
_atom_site_label 
_atom_site_type_symbol 
_atom_site_fract_x 
_atom_site_fract_y 
_atom_site_fract_z 
_atom_site_charge 
O1          O  0.80096524  0.37561036  0.35907442    -0.82300
C2          C  0.87355762  0.46970119  0.43424253     0.97100
O3          O  0.88304952  0.44000282  0.43261170    -0.71400
O4          O  0.81926004  0.40970011  0.44356676    -0.75000
Al5        Al  0.85694648  0.40425528  0.41249604     1.49000
C6          C  0.78493621  0.40167613  0.44026974     0.92300
O7          O  0.76313575  0.45802652  0.38435400    -0.81200
O8          O  0.85176036  0.44856765  0.32779098    -0.74800
Al9        Al  0.78530891  0.41737461  0.37259697     1.90100
O10         O  0.80798984  0.48861958  0.36417908    -0.73800
O11         O  0.90464088  0.44809736  0.37149470    -0.73700
O12         O  0.85691934  0.48287253  0.41115612    -0.79300
O13         O  0.89794108  0.39662683  0.38375343    -0.77600
O14         O  0.83176625  0.42855472  0.38490512    -1.13700
O15         O  0.83515995  0.36300810  0.40002379    -0.72900
C16         C  0.81385254  0.35439373  0.37754776     0.97800
C17         C  0.77398798  0.48497408  0.37322917     0.94200
Al18       Al  0.85365721  0.46425328  0.36987849     1.55600
O19         O  0.76951655  0.40098533  0.41328627    -0.77500
C20         C  0.91823441  0.41967856  0.37321178     0.98400
C21         C  0.82194982  0.43909625  0.31390718     0.93300
O22         O  0.79248492  0.43100186  0.32946193    -0.82800
O23         O  0.79795129  0.11948484  0.63515499    -0.82300
C24         C  0.87698890  0.03400845  0.55659001     0.97100
O25         O  0.88708595  0.06345864  0.56061348    -0.71400
O26         O  0.82577100  0.09580481  0.54993426    -0.75000
Al27       Al  0.86029017  0.09748235  0.58323375     1.49000
C28         C  0.79078884  0.10158342  0.55124964     0.92300
O29         O  0.76603479  0.03902820  0.60107662    -0.81200
O30         O  0.84939814  0.04649373  0.66319876    -0.74800
Al31       Al  0.78540641  0.07895145  0.61749597     1.90100
O32         O  0.80839092  0.00805719  0.62336958    -0.73800
O33         O  0.90575012  0.04982041  0.62169066    -0.73700
O34         O  0.86015681  0.01855448  0.57844951    -0.79300
O35         O  0.89919903  0.10215079  0.61415662    -0.77600
O36         O  0.83316323  0.07019273  0.60711935    -1.13700
O37         O  0.83708674  0.13727699  0.59897745    -0.72900
C38         C  0.81242400  0.14286829  0.62025409     0.97800
C39         C  0.77576286  0.01171538  0.61163158     0.94200
Al40       Al  0.85435245  0.03359874  0.62056900     1.55600
O41         O  0.77264051  0.09822323  0.57710323    -0.77500
C42         C  0.91941635  0.07833922  0.62250833     0.98400
C43         C  0.81849135  0.05444423  0.67660590     0.93300
O44         O  0.78956470  0.06212108  0.66032768    -0.82800
O45         O  0.20522611  0.43311421  0.32812965    -0.82300
C46         C  0.12671350  0.46409041  0.43700185     0.97100
O47         O  0.14233971  0.47903009  0.41420944    -0.71400
O48         O  0.19010320  0.48907420  0.36612088    -0.75000
Al49       Al  0.14484813  0.46316471  0.37194234     1.49000
C50         C  0.22382341  0.48543470  0.37546413     0.92300
O51         O  0.23115934  0.39976381  0.41063871    -0.81200
O52         O  0.16514132  0.36032821  0.39520134    -0.74800
Al53       Al  0.21407458  0.41762841  0.37077993     1.90100
O54         O  0.18082180  0.40390517  0.44144472    -0.73800
O55         O  0.10169563  0.39410778  0.38273707    -0.73700
O56         O  0.11746355  0.43435741  0.43415314    -0.79300
O57         O  0.09403310  0.44617794  0.37401220    -0.77600
O58         O  0.16754411  0.42687612  0.38444273    -1.13700
O59         O  0.14588840  0.44996667  0.32919934    -0.72900
C60         C  0.17500544  0.44121566  0.31377026     0.97800
C61         C  0.21562410  0.39809263  0.43775312     0.94200
Al62       Al  0.14312165  0.40028350  0.41090560     1.55600
O63         O  0.23504249  0.45796431  0.38448614    -0.77500
C64         C  0.08076914  0.41748319  0.37451899     0.98400
C65         C  0.18701075  0.35363493  0.37226171     0.93300
O66         O  0.20001000  0.37625589  0.35538865    -0.82800
O67         O  0.21039398  0.06561764  0.66235743    -0.82300
C68         C  0.12677019  0.03079040  0.55832109     0.97100
O69         O  0.14340129  0.01696424  0.58103210    -0.71400
O70         O  0.19370744  0.00963235  0.62686006    -0.75000
Al71       Al  0.14763490  0.03446358  0.62252438     1.49000
C72         C  0.22667293  0.01337284  0.61535774     0.92300
O73         O  0.23110774  0.09907417  0.57904003    -0.81200
O74         O  0.16598334  0.13672739  0.59551458    -0.74800
Al75       Al  0.21632676  0.08094914  0.61939553     1.90100
O76         O  0.18032737  0.09166493  0.54975086    -0.73800
O77         O  0.10330731  0.10231745  0.61126768    -0.73700
O78         O  0.11734905  0.06051842  0.56060572    -0.79300
O79         O  0.09613203  0.05060194  0.62215575    -0.77600
O80         O  0.16933513  0.07055735  0.60794014    -1.13700
O81         O  0.15065382  0.04930906  0.66461743    -0.72900
C82         C  0.18095918  0.05794247  0.67824122     0.97800
C83         C  0.21479742  0.09931370  0.55243926     0.94200
Al84       Al  0.14362386  0.09582199  0.58169738     1.55600
O85         O  0.23707148  0.04072523  0.60499511    -0.77500
C86         C  0.08255313  0.07909973  0.62071839     0.98400
C87         C  0.18842853  0.14430433  0.61769583     0.93300
O88         O  0.20186036  0.12226059  0.63492173    -0.82800
O89         O  0.29781470  0.12480202  0.35998633    -0.82300
C90         C  0.37257983  0.21915997  0.43289264     0.97100
O91         O  0.38213259  0.18944480  0.43156052    -0.71400
O92         O  0.31890169  0.15912022  0.44380842    -0.75000
Al93       Al  0.35590505  0.15341786  0.41211007     1.49000
C94         C  0.28427274  0.15195808  0.44115197     0.92300
O95         O  0.26243522  0.20762077  0.38543942    -0.81200
O96         O  0.34944349  0.19636885  0.32722543    -0.74800
Al97       Al  0.28342036  0.16674820  0.37342301     1.90100
O98         O  0.30627439  0.23758183  0.36302685    -0.73800
O99         O  0.40316600  0.19717966  0.37025584    -0.73700
O100        O  0.35583824  0.23214992  0.40974389    -0.79300
O101        O  0.39673515  0.14577866  0.38302777    -0.77600
O102        O  0.33031607  0.17756023  0.38469699    -1.13700
O103        O  0.33360190  0.11186829  0.39999186    -0.72900
C104        C  0.31156550  0.10347494  0.37781737     0.97800
C105        C  0.27295583  0.23442023  0.37389282     0.94200
Al106      Al  0.35202648  0.21302258  0.36882031     1.55600
O107        O  0.26830421  0.15104957  0.41443103    -0.77500
C108        C  0.41705059  0.16894933  0.37262957     0.98400
C109        C  0.31932370  0.18671619  0.31392476     0.93300
O110        O  0.28987830  0.17967464  0.33002613    -0.82800
O111        O  0.29990708  0.37346608  0.63265366    -0.82300
C112        C  0.37578772  0.28490464  0.55360388     0.97100
O113        O  0.38588324  0.31434101  0.55701988    -0.71400
O114        O  0.32296490  0.34502409  0.54759943    -0.75000
Al115      Al  0.35937560  0.34848101  0.57938341     1.49000
C116        C  0.28795066  0.35051064  0.55033104     0.92300
O117        O  0.26539318  0.29093856  0.60450883    -0.81200
O118        O  0.35319117  0.29767814  0.66096464    -0.74800
Al119      Al  0.28667466  0.33158745  0.61773473     1.90100
O120        O  0.31010836  0.25969056  0.62273944    -0.73800
O121        O  0.40674840  0.30210511  0.61749238    -0.73700
O122        O  0.35916100  0.27000154  0.57588257    -0.79300
O123        O  0.39969073  0.35435423  0.60887676    -0.77600
O124        O  0.33363906  0.32199785  0.60528665    -1.13700
O125        O  0.33686069  0.38878987  0.59394355    -0.72900
C126        C  0.31374464  0.39583023  0.61589970     0.97800
C127        C  0.27630323  0.26344098  0.61370412     0.94200
Al128      Al  0.35558373  0.28534814  0.61811346     1.55600
O129        O  0.27126659  0.34850642  0.57699362    -0.77500
C130        C  0.42008894  0.33078650  0.61771118     0.98400
C131        C  0.32392418  0.30735798  0.67560114     0.93300
O132        O  0.29457579  0.31706685  0.66093525    -0.82800
O133        O  0.70711552  0.18361114  0.32984758    -0.82300
C134        C  0.62487321  0.21815403  0.43558039     0.97100
O135        O  0.64136515  0.23271875  0.41296640    -0.71400
O136        O  0.69135154  0.24031685  0.36604328    -0.75000
Al137      Al  0.64518466  0.21544092  0.37117845     1.49000
C138        C  0.72481073  0.23648938  0.37609119     0.92300
O139        O  0.72854326  0.15155560  0.41422495    -0.81200
O140        O  0.66312553  0.11335755  0.39827337    -0.74800
Al141      Al  0.71366502  0.16897104  0.37327308     1.90100
O142        O  0.67744970  0.15836851  0.44345415    -0.73800
O143        O  0.60129178  0.14715809  0.38254741    -0.73700
O144        O  0.61463109  0.18873316  0.43270254    -0.79300
O145        O  0.59358864  0.19900964  0.37242679    -0.77600
O146        O  0.66687043  0.17937375  0.38534842    -1.13700
O147        O  0.64771079  0.20065874  0.32897788    -0.72900
C148        C  0.67724988  0.19099246  0.31463315     0.97800
C149        C  0.71183311  0.15055422  0.44097028     0.94200
Al150      Al  0.64108158  0.15393680  0.41180242     1.55600
O151        O  0.73503890  0.20928914  0.38661485    -0.77500
C152        C  0.58024222  0.17033379  0.37409796     0.98400
C153        C  0.68514044  0.10563495  0.37582986     0.93300
O154        O  0.69886697  0.12754710  0.35839687    -0.82800
O155        O  0.70989718  0.31753497  0.66123594    -0.82300
C156        C  0.62611985  0.28030359  0.55795897     0.97100
O157        O  0.64257289  0.26672461  0.58087759    -0.71400
O158        O  0.69228343  0.25968705  0.62696133    -0.75000
Al159      Al  0.64701536  0.28505676  0.62195297     1.49000
C160        C  0.72608978  0.26256406  0.61705399     0.92300
O161        O  0.73157157  0.34612380  0.57661429    -0.81200
O162        O  0.66728814  0.38581869  0.59105200    -0.74800
Al163      Al  0.71655033  0.33053934  0.61778123     1.90100
O164        O  0.68062842  0.33859996  0.54741081    -0.73800
O165        O  0.60434236  0.35347918  0.60885391    -0.73700
O166        O  0.61643391  0.30986940  0.56006420    -0.79300
O167        O  0.59590647  0.30221129  0.62124901    -0.77600
O168        O  0.66944873  0.32030980  0.60648432    -1.13700
O169        O  0.65051316  0.30068078  0.66360460    -0.72900
C170        C  0.68066663  0.30972898  0.67725943     0.97800
C171        C  0.71527901  0.34579043  0.54996999     0.94200
Al172      Al  0.64413347  0.34499113  0.57931465     1.55600
O173        O  0.73728613  0.28938866  0.60596333    -0.77500
C174        C  0.58299385  0.33089292  0.61885299     0.98400
C175        C  0.68925241  0.39411552  0.61318929     0.93300
O176        O  0.70275340  0.37275863  0.63115569    -0.82800
O177        O  0.78665113  0.43449770  0.16241677    -0.82300
C178        C  0.86914446  0.46731505  0.05618359     0.97100
O179        O  0.85265316  0.48168201  0.07892475    -0.71400
O180        O  0.80326598  0.49055109  0.12593072    -0.75000
Al181      Al  0.84881222  0.46505450  0.12077130     1.49000
C182        C  0.76978916  0.48697340  0.11577399     0.92300
O183        O  0.76390557  0.40156989  0.07923915    -0.81200
O184        O  0.82812105  0.36248916  0.09444447    -0.74800
Al185      Al  0.77949341  0.41927813  0.11952004     1.90100
O186        O  0.81484224  0.40790283  0.04928506    -0.73800
O187        O  0.89177492  0.39624035  0.10961836    -0.73700
O188        O  0.87853819  0.43764141  0.05881641    -0.79300
O189        O  0.89977072  0.44820512  0.11957580    -0.77600
O190        O  0.82641870  0.42900956  0.10703150    -1.13700
O191        O  0.84640740  0.45094371  0.16307085    -0.72900
C192        C  0.81653133  0.44218075  0.17747480     0.97800
C193        C  0.78013970  0.40128978  0.05241217     0.94200
Al194      Al  0.85147856  0.40306593  0.08049197     1.55600
O195        O  0.75884197  0.45958824  0.10592005    -0.77500
C196        C  0.91276714  0.41948017  0.11865783     0.98400
C197        C  0.80570307  0.35549635  0.11700455     0.93300
O198        O  0.79350590  0.37792261  0.13458121    -0.82800
O199        O  0.78868216  0.06662459  0.82956315    -0.82300
C200        C  0.87149055  0.03154220  0.93439466     0.97100
O201        O  0.85418068  0.01749138  0.91203046    -0.71400
O202        O  0.80408432  0.00957936  0.86601628    -0.75000
Al203      Al  0.85027296  0.03417341  0.87030029     1.49000
C204        C  0.77055697  0.01376236  0.87596374     0.92300
O205        O  0.76823337  0.09860692  0.91423182    -0.81200
O206        O  0.83440827  0.13676165  0.89723889    -0.74800
Al207      Al  0.78247449  0.08138616  0.87310046     1.90100
O208        O  0.81969261  0.09248325  0.94273037    -0.73800
O209        O  0.89574029  0.10204839  0.88058184    -0.73700
O210        O  0.88196930  0.06094838  0.93151806    -0.79300
O211        O  0.90192875  0.05009124  0.87041330    -0.77600
O212        O  0.82930770  0.07066897  0.88452218    -1.13700
O213        O  0.84740933  0.04802154  0.82807714    -0.72900
C214        C  0.81797285  0.05773382  0.81399767     0.97800
C215        C  0.78514246  0.09980520  0.94068257     0.94200
Al216      Al  0.85590589  0.09602576  0.91055164     1.55600
O217        O  0.76049246  0.04115158  0.88638956    -0.77500
C218        C  0.91597343  0.07855924  0.87123902     0.98400
C219        C  0.81170311  0.14475402  0.87563180     0.93300
O220        O  0.79721236  0.12303332  0.85838400    -0.82800
O221        O  0.19309603  0.37916197  0.13208054    -0.82300
C222        C  0.11924127  0.46956905  0.05644003     0.97100
O223        O  0.10901019  0.44004555  0.05897802    -0.71400
O224        O  0.17128274  0.40816314  0.04666307    -0.75000
Al225      Al  0.13507154  0.40480704  0.07946275     1.49000
C226        C  0.20581564  0.40054042  0.04895050     0.92300
O227        O  0.22974160  0.45991786  0.10240842    -0.81200
O228        O  0.14385667  0.45183367  0.16261237    -0.74800
Al229      Al  0.20834398  0.41987904  0.11644015     1.90100
O230        O  0.18687199  0.49100896  0.12473966    -0.73800
O231        O  0.08893252  0.45057809  0.12039721    -0.73700
O232        O  0.13609532  0.48373077  0.07899983    -0.79300
O233        O  0.09539793  0.39871188  0.10964074    -0.77600
O234        O  0.16152239  0.43033921  0.10541724    -1.13700
O235        O  0.15693372  0.36403312  0.09304741    -0.72900
C236        C  0.17918718  0.35686259  0.11530961     0.97800
C237        C  0.22000119  0.48705438  0.11371542     0.94200
Al238      Al  0.14050377  0.46650215  0.12044714     1.55600
O239        O  0.22232815  0.40181762  0.07553744    -0.77500
C240        C  0.07526361  0.42203274  0.11962252     0.98400
C241        C  0.17419097  0.44301150  0.17601482     0.93300
O242        O  0.20312241  0.43507446  0.15963729    -0.82800
O243        O  0.20015694  0.12167284  0.85694672    -0.82300
C244        C  0.12250618  0.03421502  0.93539273     0.97100
O245        O  0.11332169  0.06393317  0.93238379    -0.71400
O246        O  0.17540289  0.09634908  0.94166565    -0.75000
Al247      Al  0.13939843  0.09835008  0.90965695     1.49000
C248        C  0.21047117  0.10194097  0.93927827     0.92300
O249        O  0.23388963  0.04023453  0.88716149    -0.81200
O250        O  0.14736057  0.04893151  0.82876499    -0.74800
Al251      Al  0.21337172  0.08071804  0.87296025     1.90100
O252        O  0.18898908  0.01038536  0.86690323    -0.73800
O253        O  0.09318762  0.05082745  0.87184403    -0.73700
O254        O  0.13959179  0.01946051  0.91318643    -0.79300
O255        O  0.09889708  0.10312736  0.87979749    -0.77600
O256        O  0.16585656  0.07161081  0.88467661    -1.13700
O257        O  0.16191525  0.13844492  0.89425102    -0.72900
C258        C  0.18603059  0.14463600  0.87277869     0.97800
C259        C  0.22257415  0.01315824  0.87674256     0.94200
Al260      Al  0.14403077  0.03528069  0.87126465     1.55600
O261        O  0.22778283  0.09890932  0.91310460    -0.77500
C262        C  0.07902809  0.07895406  0.87123054     0.98400
C263        C  0.17760798  0.05774381  0.81480486     0.93300
O264        O  0.20728569  0.06501520  0.83027447    -0.82800
O265        O  0.28371825  0.18466177  0.16218643    -0.82300
C266        C  0.36718450  0.22057403  0.05766055     0.97100
O267        O  0.35058400  0.23467438  0.08051375    -0.71400
O268        O  0.30108611  0.24229505  0.12735286    -0.75000
Al269      Al  0.34631278  0.21713380  0.12202144     1.49000
C270        C  0.26747502  0.23909582  0.11763369     0.92300
O271        O  0.26223751  0.15535407  0.07803356    -0.81200
O272        O  0.32752943  0.11536822  0.09361784    -0.74800
Al273      Al  0.27697931  0.17127913  0.11891046     1.90100
O274        O  0.31395058  0.16048254  0.04894897    -0.73800
O275        O  0.38976823  0.14896324  0.11025018    -0.73700
O276        O  0.37701548  0.19102568  0.06009929    -0.79300
O277        O  0.39736610  0.20074383  0.12100520    -0.77600
O278        O  0.32420817  0.18130230  0.10728610    -1.13700
O279        O  0.34313461  0.20196364  0.16392466    -0.72900
C280        C  0.31329115  0.19203268  0.17773220     0.97800
C281        C  0.27907001  0.15404103  0.05150502     0.94200
Al282      Al  0.35009623  0.15597726  0.08069254     1.55600
O283        O  0.25650987  0.21215408  0.10674110    -0.77500
C284        C  0.41036857  0.17208292  0.12007801     0.98400
C285        C  0.30452673  0.10747220  0.11533000     0.93300
O286        O  0.29001400  0.12912128  0.13262886    -0.82800
O287        O  0.29578242  0.31722084  0.82619225    -0.82300
C288        C  0.37041700  0.28419786  0.93562797     0.97100
O289        O  0.35564549  0.26960368  0.91235553    -0.71400
O290        O  0.30991933  0.26036561  0.86411050    -0.75000
Al291      Al  0.35455015  0.28577270  0.87030500     1.49000
C292        C  0.27546887  0.26340407  0.87176917     0.92300
O293        O  0.26676068  0.34876421  0.90915520    -0.81200
O294        O  0.33350647  0.38879903  0.89526400    -0.74800
Al295      Al  0.28538141  0.33154282  0.86898243     1.90100
O296        O  0.31610251  0.34470030  0.94047222    -0.73800
O297        O  0.39791920  0.35451089  0.88292583    -0.73700
O298        O  0.37988580  0.31391308  0.93330230    -0.79300
O299        O  0.40520658  0.30247480  0.87306409    -0.77600
O300        O  0.33146821  0.32200184  0.88309779    -1.13700
O301        O  0.35471510  0.29881707  0.82728120    -0.72900
C302        C  0.32601849  0.30837615  0.81206368     0.97800
C303        C  0.28136390  0.35065758  0.93649699     0.94200
Al304      Al  0.35509532  0.34833682  0.91037433     1.55600
O305        O  0.26328073  0.29071114  0.88088186    -0.77500
C306        C  0.41873651  0.33098574  0.87428022     0.98400
C307        C  0.31188885  0.39542826  0.87239266     0.93300
O308        O  0.30047792  0.37285719  0.85480635    -0.82800
O309        O  0.69442734  0.12721891  0.13314472    -0.82300
C310        C  0.61898103  0.21626301  0.05749714     0.97100
O311        O  0.60822210  0.18687770  0.06013932    -0.71400
O312        O  0.66960466  0.15479018  0.04896288    -0.75000
Al313      Al  0.63380861  0.15190537  0.08148710     1.49000
C314        C  0.70433864  0.14831012  0.05070470     0.92300
O315        O  0.72749330  0.20926058  0.10326476    -0.81200
O316        O  0.64221351  0.19891395  0.16445506    -0.74800
Al317      Al  0.70757577  0.16856686  0.11759640     1.90100
O318        O  0.68433793  0.23911316  0.12651246    -0.73800
O319        O  0.58696575  0.19781186  0.12167202    -0.73700
O320        O  0.63429458  0.23093007  0.08053406    -0.79300
O321        O  0.59381489  0.14600520  0.11131505    -0.77600
O322        O  0.66012432  0.17789223  0.10710979    -1.13700
O323        O  0.65575554  0.11157665  0.09582486    -0.72900
C324        C  0.67931456  0.10477387  0.11728175     0.97800
C325        C  0.71726285  0.23619457  0.11475075     0.94200
Al326      Al  0.63850718  0.21385450  0.12210727     1.55600
O327        O  0.72162641  0.15080751  0.07682133    -0.77500
C328        C  0.57311699  0.16939004  0.12008953     0.98400
C329        C  0.67318522  0.19085237  0.17744481     0.88500
O330        O  0.70221631  0.18364774  0.16081586    -0.82800
O331        O  0.70040860  0.37426744  0.85951442    -0.82300
C332        C  0.62825380  0.28041237  0.93589448     0.97100
O333        O  0.61814766  0.30991756  0.93416903    -0.71400
O334        O  0.68143491  0.34023530  0.94389162    -0.75000
Al335      Al  0.64394181  0.34545344  0.91348223     1.49000
C336        C  0.71579344  0.34797764  0.94052501     0.92300
O337        O  0.73752655  0.29167100  0.88465405    -0.81200
O338        O  0.64890829  0.30032822  0.82941459    -0.74800
Al339      Al  0.71557448  0.33225499  0.87285770     1.90100
O340        O  0.69295533  0.26065724  0.86487273    -0.73800
O341        O  0.59553170  0.30124994  0.87347668    -0.73700
O342        O  0.64450773  0.26709369  0.91249936    -0.79300
O343        O  0.60308234  0.35277036  0.88543151    -0.77600
O344        O  0.66907439  0.32111372  0.88566865    -1.13700
O345        O  0.66528636  0.38646166  0.90052139    -0.72900
C346        C  0.68656450  0.39532355  0.87797718     0.97800
C347        C  0.72671420  0.26445807  0.87416771     0.94200
Al348      Al  0.64716529  0.28515998  0.87119753     1.55600
O349        O  0.73151244  0.34886473  0.91349413    -0.77500
C350        C  0.58205208  0.32974126  0.87618914     0.98400
C351        C  0.67831051  0.30964507  0.81468474     0.93300
O352        O  0.70790166  0.31829734  0.82967462    -0.82800
C353        C  0.61640742  0.23232661  0.02629245    -0.00600
C354        C  0.62668119  0.21419840  0.99936718    -0.12500
C355        C  0.63035367  0.22888584  0.96964944     0.01600
C356        C  0.62202321  0.26241248  0.96609436    -0.00700
C357        C  0.61015752  0.28015106  0.99300963    -0.12500
C358        C  0.60798221  0.26562108  0.02290862     0.01500
H359        H  0.63390903  0.18868528  0.00182712     0.14500
H360        H  0.60392733  0.30590553  0.99106898     0.14500
C361        C  0.59723920  0.28546295  0.04972094     0.36100
C362        C  0.64443591  0.20905110  0.94387048     0.36000
N363        N  0.58873266  0.30140238  0.07122197    -0.44200
N364        N  0.65614691  0.19313209  0.92340406    -0.44200
C365        C  0.46015299  0.33553416  0.86862930    -0.00600
C366        C  0.47984474  0.35898866  0.88641075    -0.12500
C367        C  0.51972380  0.35895595  0.88777097     0.01600
C368        C  0.54074437  0.33508789  0.87090428    -0.00700
C369        C  0.52103706  0.31329404  0.85124387    -0.12500
C370        C  0.48127250  0.31351633  0.84970331     0.01500
H371        H  0.46404010  0.37597527  0.90107818     0.14500
H372        H  0.53665785  0.29518671  0.83785499     0.14500
C373        C  0.46291942  0.29043176  0.82887471     0.36100
C374        C  0.53779527  0.38189983  0.90887602     0.36000
N375        N  0.44823125  0.27199720  0.81213266    -0.44200
N376        N  0.55224480  0.40023488  0.92586133    -0.44200
C377        C  0.53170699  0.16463918  0.12582443    -0.00600
C378        C  0.51237707  0.18716149  0.14512988    -0.12500
C379        C  0.47254341  0.18830087  0.14587518     0.01600
C380        C  0.45118653  0.16660601  0.12690760    -0.00700
C381        C  0.47038179  0.14213731  0.11001762    -0.12500
C382        C  0.51019294  0.14113231  0.10902504     0.01500
H383        H  0.52845014  0.20492712  0.15862289     0.14500
H384        H  0.45436967  0.12531579  0.09538451     0.14500
C385        C  0.52770645  0.11786012  0.08786144     0.36100
C386        C  0.45442292  0.21253544  0.16565957     0.36000
N387        N  0.54149412  0.09930653  0.07065877    -0.44200
N388        N  0.43986716  0.23192629  0.18150022    -0.44200
C389        C  0.37330771  0.23756641  0.02701039    -0.00600
C390        C  0.37546897  0.21864364  0.99924295    -0.12500
C391        C  0.37615097  0.23308794  0.96926560     0.01600
C392        C  0.37488175  0.26736498  0.96650066    -0.00700
C393        C  0.37487922  0.28630937  0.99430463    -0.12500
C394        C  0.37399491  0.27184162  0.02428421     0.01500
H395        H  0.37519715  0.19224573  0.00081918     0.14500
H396        H  0.37414305  0.31264852  0.99270291     0.14500
C397        C  0.37385314  0.29285065  0.05171955     0.36100
C398        C  0.37818271  0.21201896  0.94190174     0.36000
N399        N  0.37384746  0.30971881  0.07368910    -0.44200
N400        N  0.37990855  0.19505060  0.92004249    -0.44200
C401        C  0.24990603  0.48584212  0.87380491    -0.00600
C402        C  0.24347220  0.46288286  0.84981322    -0.12500
C403        C  0.26555807  0.43482772  0.84692824     0.01600
C404        C  0.29513617  0.42866457  0.86884918    -0.00700
C405        C  0.30339128  0.45288752  0.89152726    -0.12500
C406        C  0.28132838  0.48136582  0.89401490     0.01500
H407        H  0.22033276  0.46654131  0.83333926     0.14500
H408        H  0.32591243  0.44889990  0.90846614     0.14500
C409        C  0.30155593  0.00877568  0.90454617     0.36100
C410        C  0.25518600  0.41228079  0.82209477     0.36000
N411        N  0.31535666  0.03032063  0.91800269    -0.44200
N412        N  0.24642426  0.39431698  0.80227103    -0.44200
C413        C  0.24963423  0.23462159  0.86930497    -0.00600
C414        C  0.21605468  0.23319594  0.88754421    -0.12500
C415        C  0.19303858  0.20503526  0.88786266     0.01600
C416        C  0.20265021  0.17794799  0.86857731    -0.00700
C417        C  0.23450312  0.18075040  0.84844898    -0.12500
C418        C  0.25838047  0.20794139  0.84926377     0.01500
H419        H  0.20874416  0.25350150  0.90286744     0.14500
H420        H  0.24269636  0.16049389  0.83337053     0.14500
C421        C  0.29263800  0.20659059  0.83020860     0.36100
C422        C  0.16100242  0.20424199  0.90934717     0.36000
N423        N  0.32035356  0.20494406  0.81538005    -0.44200
N424        N  0.13547596  0.20360406  0.92675389    -0.44200
C425        C  0.25921957  0.14223831  0.02318311    -0.00600
C426        C  0.27326637  0.15175723  0.99342638    -0.12500
C427        C  0.25907257  0.13800886  0.96568310     0.01600
C428        C  0.23011305  0.11418224  0.96751351    -0.00700
C429        C  0.21600959  0.10473232  0.99725226    -0.12500
C430        C  0.23025614  0.11838654  0.02498588     0.01500
H431        H  0.29572697  0.16994946  0.99182713     0.14500
H432        H  0.19361979  0.08648102  0.99884676     0.14500
C433        C  0.21568372  0.10630566  0.05476902     0.36100
C434        C  0.27391639  0.14972650  0.93587138     0.36000
N435        N  0.20395442  0.09654287  0.07856594    -0.44200
N436        N  0.28607162  0.15921440  0.91212038    -0.44200
C437        C  0.25913228  0.36172452  0.96451187    -0.00600
C438        C  0.27179521  0.35234387  0.99461089    -0.12500
C439        C  0.25569816  0.36516317  0.02226736     0.01600
C440        C  0.22584828  0.38805363  0.02033595    -0.00700
C441        C  0.21261110  0.39702769  0.99023448    -0.12500
C442        C  0.22903860  0.38438090  0.96248395     0.01500
H443        H  0.29498894  0.33489597  0.99662107     0.14500
H444        H  0.18947865  0.41450979  0.98831273     0.14500
C445        C  0.21575335  0.39643648  0.93247603     0.36100
C446        C  0.26984370  0.35354583  0.05216942     0.36000
N447        N  0.20508802  0.40627058  0.90850228    -0.44200
N448        N  0.28130362  0.34418802  0.07606483    -0.44200
C449        C  0.11370220  0.48637480  0.02582289    -0.00600
C450        C  0.11352160  0.46731311  0.99813738    -0.12500
C451        C  0.11432737  0.48164167  0.96818333     0.01600
C452        C  0.11493151  0.01739396  0.96586657    -0.00700
C453        C  0.11399130  0.03605171  0.99380913    -0.12500
C454        C  0.11301900  0.02119095  0.02360309     0.01500
H455        H  0.11442232  0.44096296  0.99980487     0.14500
H456        H  0.11571928  0.06239440  0.99248721     0.14500
C457        C  0.11237894  0.04185369  0.05129268     0.36100
C458        C  0.11453210  0.46049561  0.94084000     0.36000
N459        N  0.11173204  0.05841598  0.07347763    -0.44200
N460        N  0.11463107  0.44352308  0.91894703    -0.44200
C461        C  0.19407282  0.32320511  0.11947113    -0.00600
C462        C  0.22107649  0.31837424  0.14340948    -0.12500
C463        C  0.24462097  0.29109009  0.14352931     0.01600
C464        C  0.24089609  0.26705942  0.11974780    -0.00700
C465        C  0.21146813  0.27011799  0.09761569    -0.12500
C466        C  0.18824528  0.29791482  0.09712868     0.01500
H467        H  0.22557405  0.33698511  0.16128870     0.14500
H468        H  0.20768109  0.25141846  0.07971498     0.14500
C469        C  0.15996372  0.30020336  0.07263808     0.36100
C470        C  0.27271878  0.28888859  0.16823811     0.36000
N471        N  0.13726997  0.30194348  0.05300826    -0.44200
N472        N  0.29529268  0.28735813  0.18798045    -0.44200
C473        C  0.24602075  0.01568331  0.11404655    -0.00600
C474        C  0.24765898  0.03382415  0.14216559    -0.12500
C475        C  0.26958536  0.06223334  0.14424969     0.01600
C476        C  0.29010345  0.07343103  0.11751659    -0.00700
C477        C  0.29044863  0.05396216  0.08998404    -0.12500
C478        C  0.26867478  0.02528818  0.08806840     0.01500
H479        H  0.23109257  0.02602237  0.16253817     0.14500
H480        H  0.30563795  0.06225140  0.06909459     0.14500
C481        C  0.27205452  0.50478245  0.06118864     0.36100
C482        C  0.26976937  0.07963985  0.17398286     0.36000
N483        N  0.27257211  0.48993749  0.03788556    -0.44200
N484        N  0.26986875  0.09350840  0.19784630    -0.44200
C485        C  0.95723079  0.08309003  0.86397701    -0.00600
C486        C  0.97716623  0.05664435  0.85093417    -0.12500
C487        C  0.01689619  0.05604635  0.85032101     0.01600
C488        C  0.03794343  0.08229547  0.86343146    -0.00700
C489        C  0.01814745  0.11031984  0.87308715    -0.12500
C490        C  0.97817926  0.11107224  0.87322155     0.01500
H491        H  0.96169734  0.03550921  0.84242996     0.14500
H492        H  0.03376212  0.13102764  0.88233786     0.14500
C493        C  0.95980461  0.14033131  0.88443777     0.36100
C494        C  0.03491635  0.02742933  0.83709828     0.36000
N495        N  0.94509743  0.16387807  0.89324450    -0.44200
N496        N  0.04924394  0.00443633  0.82660155    -0.44200
C497        C  0.72439549  0.13627089  0.02210743    -0.00600
C498        C  0.76419821  0.13713444  0.02146570    -0.12500
C499        C  0.78460287  0.12491674  0.99563699     0.01600
C500        C  0.76498694  0.11148474  0.96936541    -0.00700
C501        C  0.72518104  0.11054861  0.97002024    -0.12500
C502        C  0.70478173  0.12240521  0.99603739     0.01500
H503        H  0.77958425  0.14755490  0.04124383     0.14500
H504        H  0.70983183  0.10009759  0.95023217     0.14500
C505        C  0.66389852  0.11862971  0.99545621     0.36100
C506        C  0.82558145  0.12748729  0.99683226     0.36000
N507        N  0.63118763  0.11538171  0.99481077    -0.44200
N508        N  0.85837938  0.12967385  0.99804661    -0.44200
C509        C  0.79773820  0.17894143  0.87283562    -0.00600
C510        C  0.77564967  0.18701730  0.84638478    -0.12500
C511        C  0.75354180  0.21531346  0.84593200     0.01600
C512        C  0.75346865  0.23665530  0.87217661    -0.00700
C513        C  0.77795451  0.23029043  0.89743581    -0.12500
C514        C  0.79973566  0.20166606  0.89818720     0.01500
H515        H  0.77408792  0.17034618  0.82649911     0.14500
H516        H  0.77840921  0.24679044  0.91750648     0.14500
C517        C  0.82148540  0.19548668  0.92637372     0.36100
C518        C  0.73089410  0.22172099  0.81825149     0.36000
N519        N  0.83876957  0.19072672  0.94908479    -0.44200
N520        N  0.71275448  0.22687056  0.79608692    -0.44200
C521        C  0.74217700  0.48846035  0.87359546    -0.00600
C522        C  0.72100440  0.48033386  0.90059240    -0.12500
C523        C  0.69993057  0.45126883  0.90185636     0.01600
C524        C  0.69954461  0.42983485  0.87539566    -0.00700
C525        C  0.71809529  0.43973757  0.84746423    -0.12500
C526        C  0.73926045  0.46866520  0.84638513     0.01500
H527        H  0.72284873  0.49571389  0.92144749     0.14500
H528        H  0.71759293  0.42407511  0.82675800     0.14500
C529        C  0.75800473  0.47743051  0.81710142     0.36100
C530        C  0.68181783  0.44311607  0.93155343     0.36000
N531        N  0.77285866  0.48451572  0.79360012    -0.44200
N532        N  0.66755462  0.43655129  0.95544796    -0.44200
C533        C  0.95374957  0.41442788  0.12564984    -0.00600
C534        C  0.97284066  0.43815476  0.14368537    -0.12500
C535        C  0.01264419  0.43940419  0.14460214     0.01600
C536        C  0.03427151  0.41674484  0.12688037    -0.00700
C537        C  0.01523233  0.39085923  0.11189939    -0.12500
C538        C  0.97539567  0.38946361  0.11113822     0.01500
H539        H  0.95662843  0.45679882  0.15596035     0.14500
H540        H  0.03140161  0.37287502  0.09869351     0.14500
C541        C  0.95795908  0.36365456  0.09299614     0.36100
C542        C  0.03039495  0.46461581  0.16337215     0.36000
N543        N  0.94410316  0.34291814  0.07843344    -0.44200
N544        N  0.04455369  0.48474200  0.17853264    -0.44200
C545        C  0.87752172  0.01457760  0.96498494    -0.00600
C546        C  0.88032887  0.03346013  0.99273482    -0.12500
C547        C  0.87950995  0.01898866  0.02271954     0.01600
C548        C  0.87553954  0.48439436  0.02553616    -0.00700
C549        C  0.87634945  0.46585883  0.99748629    -0.12500
C550        C  0.87585923  0.48078273  0.96766698     0.01500
H551        H  0.88148901  0.05979897  0.99114075     0.14500
H552        H  0.87537588  0.43943172  0.99877078     0.14500
C553        C  0.87569320  0.46018720  0.93994173     0.36100
C554        C  0.88256317  0.03972711  0.05022119     0.36000
N555        N  0.87558240  0.44367559  0.91771759    -0.44200
N556        N  0.88527349  0.05633473  0.07225410    -0.44200
C557        C  0.76028211  0.38952758  0.02444834    -0.00600
C558        C  0.74537961  0.35786164  0.02520623    -0.12500
C559        C  0.73294284  0.34286577  0.99747687     0.01600
C560        C  0.73566947  0.35970012  0.96854612    -0.00700
C561        C  0.75075124  0.39132332  0.96779518    -0.12500
C562        C  0.76268632  0.40648217  0.99559943     0.01500
H563        H  0.74477869  0.34442710  0.04726696     0.14500
H564        H  0.75149681  0.40473038  0.94573159     0.14500
C565        C  0.77547396  0.43993188  0.99433644     0.36100
C566        C  0.71857505  0.30988986  0.99903128     0.36000
N567        N  0.78505760  0.46690619  0.99343382    -0.44200
N568        N  0.70730395  0.28340390  0.00020730    -0.44200
C569        C  0.74041040  0.01482079  0.11686166    -0.00600
C570        C  0.74087725  0.03465560  0.14389178    -0.12500
C571        C  0.71783203  0.06227008  0.14620702     0.01600
C572        C  0.69411814  0.07104457  0.12066332    -0.00700
C573        C  0.69153054  0.04968312  0.09461638    -0.12500
C574        C  0.71435075  0.02173720  0.09256157     0.01500
H575        H  0.75984556  0.02879576  0.16317688     0.14500
H576        H  0.67371737  0.05596393  0.07471615     0.14500
C577        C  0.71430260  0.50125166  0.06502069     0.36100
C578        C  0.72022677  0.08164758  0.17471417     0.36000
N579        N  0.71230610  0.48491204  0.04274508    -0.44200
N580        N  0.72224346  0.09725465  0.19748007    -0.44200
C581        C  0.78911178  0.32196679  0.12005498    -0.00600
C582        C  0.79396038  0.29956225  0.09499305    -0.12500
C583        C  0.77177289  0.27101753  0.09296423     0.01600
C584        C  0.74398646  0.26433872  0.11635188    -0.00700
C585        C  0.74079344  0.28554940  0.14228427    -0.12500
C586        C  0.76286739  0.31388465  0.14448429     0.01500
H587        H  0.81356475  0.30520419  0.07586620     0.14500
H588        H  0.72029490  0.28022248  0.16088736     0.14500
C589        C  0.75645218  0.33461482  0.17166061     0.36100
C590        C  0.77626186  0.25028690  0.06556511     0.36000
N591        N  0.75094100  0.35121261  0.19336778    -0.44200
N592        N  0.77976571  0.23367231  0.04359080    -0.44200
C593        C  0.68133993  0.31040063  0.71240473    -0.00600
C594        C  0.64774850  0.30201724  0.72862515    -0.12500
C595        C  0.64600217  0.30145975  0.76154338     0.01600
C596        C  0.67848883  0.30987743  0.77950762    -0.00700
C597        C  0.71221452  0.31830983  0.76334759    -0.12500
C598        C  0.71403506  0.31850626  0.73023351     0.01500
H599        H  0.62235368  0.29555752  0.71554942     0.14500
H600        H  0.73753969  0.32456493  0.77658100     0.14500
C601        C  0.75002143  0.32674941  0.71558942     0.36100
C602        C  0.61022963  0.29174019  0.77567413     0.36000
N603        N  0.77894209  0.33330390  0.70397298    -0.44200
N604        N  0.58145995  0.28371913  0.78662973    -0.44200
C605        C  0.67679119  0.18901833  0.27955862    -0.00600
C606        C  0.70961904  0.19725170  0.26221434    -0.12500
C607        C  0.70927788  0.19782773  0.22901073     0.01600
C608        C  0.67552128  0.18999993  0.21250504    -0.00700
C609        C  0.64304855  0.18095932  0.22989039    -0.12500
C610        C  0.64352328  0.18001074  0.26298615     0.01500
H611        H  0.73533635  0.20413604  0.27463934     0.14500
H612        H  0.61728011  0.17405165  0.21753243     0.14500
C613        C  0.60999810  0.16814114  0.27925144     0.36100
C614        C  0.74345953  0.20794611  0.21259695     0.36000
N615        N  0.58328392  0.15829544  0.29223922    -0.44200
N616        N  0.77078305  0.21604474  0.19933885    -0.44200
C617        C  0.62011773  0.26281794  0.52757198    -0.00600
C618        C  0.61132515  0.28133632  0.50053601    -0.12500
C619        C  0.61175830  0.26741787  0.47026891     0.01600
C620        C  0.61985613  0.23406878  0.46668492    -0.00700
C621        C  0.62614034  0.21512648  0.49374014    -0.12500
C622        C  0.62685436  0.22908183  0.52389691     0.01500
H623        H  0.60601509  0.30723726  0.50270987     0.14500
H624        H  0.63243647  0.18948202  0.49120116     0.14500
C625        C  0.63588038  0.20814202  0.55018226     0.36100
C626        C  0.60429220  0.28798962  0.44340850     0.36000
N627        N  0.64337730  0.19121702  0.57106020    -0.44200
N628        N  0.59835417  0.30463125  0.42197308    -0.44200
C629        C  0.32425983  0.30716345  0.71047300    -0.00600
C630        C  0.32482807  0.33693204  0.72676251    -0.12500
C631        C  0.32694087  0.33781759  0.75986361     0.01600
C632        C  0.32719825  0.30851496  0.77716745    -0.00700
C633        C  0.32782278  0.27875618  0.76084170    -0.12500
C634        C  0.32686462  0.27787104  0.72770086     0.01500
H635        H  0.32502433  0.35947141  0.71352258     0.14500
H636        H  0.32885610  0.25617773  0.77402311     0.14500
C637        C  0.32858986  0.24666140  0.71195574     0.36100
C638        C  0.33169091  0.36889415  0.77538098     0.36000
N639        N  0.33038561  0.22154858  0.69955461    -0.44200
N640        N  0.33642764  0.39382659  0.78758544    -0.44200
C641        C  0.46102259  0.33579168  0.62508141    -0.00600
C642        C  0.48114769  0.36060788  0.60939010    -0.12500
C643        C  0.52107464  0.36128927  0.60915310     0.01600
C644        C  0.54172213  0.33663880  0.62488942    -0.00700
C645        C  0.52143094  0.31394047  0.64331936    -0.12500
C646        C  0.48155910  0.31346855  0.64374258     0.01500
H647        H  0.46578890  0.37820525  0.59534088     0.14500
H648        H  0.53674940  0.29553419  0.65640291     0.14500
C649        C  0.46249551  0.28941922  0.66310622     0.36100
C650        C  0.53970746  0.38603371  0.59038522     0.36000
N651        N  0.44718778  0.27026508  0.67871903    -0.44200
N652        N  0.55461223  0.40588317  0.57534056    -0.44200
C653        C  0.31767340  0.18520945  0.27905554    -0.00600
C654        C  0.28265622  0.19060017  0.26417162    -0.12500
C655        C  0.28015601  0.19215575  0.23121500     0.01600
C656        C  0.31340740  0.18887058  0.21252966    -0.00700
C657        C  0.34809406  0.18211645  0.22740371    -0.12500
C658        C  0.35034962  0.17962000  0.26026350     0.01500
H659        H  0.25722640  0.19442360  0.27834260     0.14500
H660        H  0.37351361  0.17815986  0.21324375     0.14500
C661        C  0.38595101  0.16931635  0.27376693     0.36100
C662        C  0.24333946  0.19819864  0.21748930     0.36000
N663        N  0.41435981  0.16037397  0.28428482    -0.44200
N664        N  0.21375866  0.20284356  0.20654672    -0.44200
C665        C  0.45843321  0.16446422  0.36677229    -0.00600
C666        C  0.47802317  0.14153026  0.38501396    -0.12500
C667        C  0.51784672  0.14175152  0.38650303     0.01600
C668        C  0.53900465  0.16487890  0.36883665    -0.00700
C669        C  0.51951592  0.18609599  0.34870691    -0.12500
C670        C  0.47971828  0.18611628  0.34749585     0.01500
H671        H  0.46217067  0.12501014  0.40016622     0.14500
H672        H  0.53541349  0.20368451  0.33476676     0.14500
C673        C  0.46166097  0.20936995  0.32692725     0.36100
C674        C  0.53570094  0.12022289  0.40888534     0.36000
N675        N  0.44735228  0.22802369  0.31037354    -0.44200
N676        N  0.54994533  0.10315004  0.42700692    -0.44200
C677        C  0.38145715  0.26862966  0.52264309    -0.00600
C678        C  0.37664127  0.28692811  0.49491942    -0.12500
C679        C  0.37527252  0.27181936  0.46516275     0.01600
C680        C  0.37938679  0.23762213  0.46271043    -0.00700
C681        C  0.38701986  0.21980603  0.49036173    -0.12500
C682        C  0.38776485  0.23485620  0.52006079     0.01500
H683        H  0.37204865  0.31302575  0.49660522     0.14500
H684        H  0.39069672  0.19358848  0.48911515     0.14500
C685        C  0.39468688  0.21498088  0.54752679     0.36100
C686        C  0.36911687  0.29204091  0.43781023     0.36000
N687        N  0.40021271  0.19909590  0.56957309    -0.44200
N688        N  0.36431490  0.30823767  0.41585534    -0.44200
C689        C  0.18158974  0.05892510  0.71317883    -0.00600
C690        C  0.14795724  0.06734219  0.72926442    -0.12500
C691        C  0.14638097  0.06799731  0.76227185     0.01600
C692        C  0.17864740  0.05907744  0.77992138    -0.00700
C693        C  0.21260149  0.05140787  0.76391794    -0.12500
C694        C  0.21442498  0.05143809  0.73082257     0.01500
H695        H  0.12287900  0.07407366  0.71593769     0.14500
H696        H  0.23767185  0.04482345  0.77731303     0.14500
C697        C  0.24991872  0.04265255  0.71572477     0.36100
C698        C  0.11203445  0.07973053  0.77734154     0.36000
N699        N  0.27841933  0.03573438  0.70365231    -0.44200
N700        N  0.08205204  0.58722013  0.78965692    -0.44200
C701        C  0.25303390  0.48679527  0.61694164    -0.00600
C702        C  0.25412127  0.46760359  0.64428871    -0.12500
C703        C  0.27645578  0.43943791  0.64568263     0.01600
C704        C  0.29835958  0.42961187  0.61908969    -0.00700
C705        C  0.29905452  0.45011844  0.59237354    -0.12500
C706        C  0.27650647  0.47832864  0.59104243     0.01500
H707        H  0.23680210  0.47436074  0.66457047     0.14500
H708        H  0.31497952  0.44288410  0.57150001     0.14500
C709        C  0.26992546  0.99232149  0.55884664     0.36100
C710        C  0.27527418  0.42078978  0.67455769     0.36000
N711        N  0.26666841  0.00567913  0.53497425    -0.44200
N712        N  0.27391665  0.40604613  0.69781174    -0.44200
C713        C  0.20390131  0.17819700  0.62034162    -0.00600
C714        C  0.20071651  0.19930669  0.59423454    -0.12500
C715        C  0.22294804  0.22778015  0.59184423     0.01600
C716        C  0.24929299  0.23554091  0.61578867    -0.00700
C717        C  0.25048629  0.21582812  0.64278264    -0.12500
C718        C  0.22800065  0.18773046  0.64550991     0.01500
H719        H  0.18251474  0.19259377  0.57457380     0.14500
H720        H  0.26953399  0.22236027  0.66195697     0.14500
C721        C  0.23107864  0.16893839  0.67421547     0.36100
C722        C  0.22006371  0.24730584  0.56364549     0.36000
N723        N  0.23362882  0.15393600  0.69723191    -0.44200
N724        N  0.21767776  0.26291607  0.54100767    -0.44200
C725        C  0.23464711  0.11158794  0.52434656    -0.00600
C726        C  0.25132816  0.14266036  0.52574616    -0.12500
C727        C  0.26581976  0.15734998  0.49838744     0.01600
C728        C  0.26387248  0.14060563  0.46930373    -0.00700
C729        C  0.24683233  0.10975694  0.46790065    -0.12500
C730        C  0.23228475  0.09514942  0.49514596     0.01500
H731        H  0.25180186  0.15588452  0.54797953     0.14500
H732        H  0.24616418  0.09653449  0.44566674     0.14500
C733        C  0.21658575  0.06272984  0.49278064     0.36100
C734        C  0.28072800  0.19012588  0.50033684     0.36000
N735        N  0.20445603  0.03659169  0.49080707    -0.44200
N736        N  0.29214882  0.21655363  0.50182435    -0.44200
C737        C  0.17547583  0.44218412  0.21122097    -0.00600
C738        C  0.14093654  0.44326107  0.22805925    -0.12500
C739        C  0.13989412  0.44267331  0.26111572     0.01600
C740        C  0.17419841  0.44112913  0.27850367    -0.00700
C741        C  0.20878203  0.43976638  0.26166173    -0.12500
C742        C  0.20978729  0.44036577  0.22850617     0.01500
H743        H  0.11422611  0.44427424  0.21530401     0.14500
H744        H  0.23544731  0.43870669  0.27445976     0.14500
C745        C  0.24659450  0.43999052  0.21317212     0.36100
C746        C  0.10286447  0.44290858  0.27604543     0.36000
N747        N  0.27615272  0.43972716  0.20096466    -0.44200
N748        N  0.07285403  0.44305795  0.28741778    -0.44200
C749        C  0.23685516  0.38727836  0.46576805    -0.00600
C750        C  0.22574026  0.39956217  0.49545300    -0.12500
C751        C  0.24070185  0.38696639  0.52335950     0.01600
C752        C  0.26769361  0.36166326  0.52190116    -0.00700
C753        C  0.27916304  0.34957537  0.49218105    -0.12500
C754        C  0.26374359  0.36188415  0.46423414     0.01500
H755        H  0.20485422  0.41893891  0.49687440     0.14500
H756        H  0.30001100  0.33017838  0.49081382     0.14500
C757        C  0.27427473  0.34676439  0.43458584     0.36100
C758        C  0.22864724  0.40116471  0.55301827     0.36000
N759        N  0.28240448  0.33465729  0.41075702    -0.44200
N760        N  0.21889904  0.41239446  0.57683150    -0.44200
C761        C  0.12094399  0.48067400  0.46791190    -0.00600
C762        C  0.12609343  0.46266043  0.49575465    -0.12500
C763        C  0.12633493  0.47784616  0.52550177     0.01600
C764        C  0.12026753  0.01311720  0.52796705    -0.00700
C765        C  0.11708152  0.03148707  0.50007186    -0.12500
C766        C  0.11767582  0.01660185  0.47019750     0.01500
H767        H  0.13161785  0.43667877  0.49420964     0.14500
H768        H  0.11644091  0.05789839  0.50140773     0.14500
C769        C  0.11667608  0.03728924  0.44266866     0.36100
C770        C  0.13265049  0.45771950  0.55290277     0.36000
N771        N  0.11611058  0.05397450  0.42067058    -0.44200
N772        N  0.13757934  0.44160148  0.57489344    -0.44200
C773        C  0.24624137  0.26224424  0.37166105    -0.00600
C774        C  0.25023093  0.28357095  0.34597241    -0.12500
C775        C  0.22842627  0.31192032  0.34378092     0.01600
C776        C  0.20205957  0.31989802  0.36811031    -0.00700
C777        C  0.19600579  0.29712830  0.39253446    -0.12500
C778        C  0.21773668  0.26856868  0.39450160     0.01500
H779        H  0.27117840  0.27837753  0.32767138     0.14500
H780        H  0.17598644  0.30259213  0.41143966     0.14500
C781        C  0.21214629  0.24755943  0.42146625     0.36100
C782        C  0.23509226  0.33275432  0.31680373     0.36000
N783        N  0.20773977  0.23070740  0.44308022    -0.44200
N784        N  0.24062805  0.34941123  0.29521171    -0.44200
C785        C  0.25133545  0.01232315  0.37658038    -0.00600
C786        C  0.25596878  0.03005918  0.34854223    -0.12500
C787        C  0.27891075  0.05801684  0.34750415     0.01600
C788        C  0.29699449  0.06941016  0.37527500    -0.00700
C789        C  0.29415759  0.05038850  0.40289692    -0.12500
C790        C  0.27168981  0.02198124  0.40367320     0.01500
H791        H  0.24120833  0.02219090  0.32738557     0.14500
H792        H  0.30744618  0.05878214  0.42451451     0.14500
C793        C  0.26772389  0.00443276  0.43305345     0.36100
C794        C  0.28287082  0.07478781  0.31766713     0.36000
N795        N  0.26437944  0.99017780  0.45647812    -0.44200
N796        N  0.28614590  0.08824031  0.29378727    -0.44200
C797        C  0.81782650  0.05791859  0.77883497    -0.00600
C798        C  0.78355624  0.05272361  0.76254418    -0.12500
C799        C  0.78284681  0.05103550  0.72934015     0.01600
C800        C  0.81688845  0.05521843  0.71174919    -0.00700
C801        C  0.85097017  0.06059906  0.72812019    -0.12500
C802        C  0.85178374  0.06201363  0.76111891     0.01500
H803        H  0.75738563  0.04901278  0.77581319     0.14500
H804        H  0.87731204  0.06418284  0.71501908     0.14500
C805        C  0.88790979  0.06871740  0.77595108     0.36100
C806        C  0.74724551  0.04334090  0.71413875     0.36000
N807        N  0.91688850  0.07408381  0.78774881    -0.44200
N808        N  0.71879555  0.03695353  0.70192013    -0.44200
C809        C  0.96053511  0.08302060  0.62955130    -0.00600
C810        C  0.98015981  0.10877849  0.61486588    -0.12500
C811        C  0.02006007  0.10954705  0.61372026     0.01600
C812        C  0.04128127  0.08407762  0.62758686    -0.00700
C813        C  0.02159780  0.06026288  0.64515137    -0.12500
C814        C  0.98172139  0.05966218  0.64644239     0.01500
H815        H  0.96435418  0.12718034  0.60216638     0.14500
H816        H  0.03736816  0.04116540  0.65688553     0.14500
C817        C  0.96333261  0.03444056  0.66481100     0.36100
C818        C  0.03798328  0.13536722  0.59587413     0.36000
N819        N  0.94857462  0.01433567  0.67963675    -0.44200
N820        N  0.05230044  0.15606394  0.58153465    -0.44200
C821        C  0.77133419  0.11359235  0.52244314    -0.00600
C822        C  0.73151713  0.11393530  0.52206905    -0.12500
C823        C  0.71163630  0.12598880  0.49612994     0.01600
C824        C  0.73172853  0.13845036  0.46948994    -0.00700
C825        C  0.77155020  0.13793333  0.46971710    -0.12500
C826        C  0.79147090  0.12593589  0.49574254     0.01500
H827        H  0.71561423  0.10446669  0.54216022     0.14500
H828        H  0.78733703  0.14732273  0.44953203     0.14500
C829        C  0.83249624  0.12785639  0.49436249     0.36100
C830        C  0.67061234  0.12392396  0.49750309     0.36000
N831        N  0.86533543  0.12967157  0.49299865    -0.44200
N832        N  0.63777815  0.12205294  0.49885337    -0.44200
C833        C  0.79608118  0.17620073  0.62468468    -0.00600
C834        C  0.80688033  0.20125642  0.60373132    -0.12500
C835        C  0.78560428  0.23013136  0.60137890     0.01600
C836        C  0.75238237  0.23427726  0.62000708    -0.00700
C837        C  0.74339158  0.21040504  0.64257291    -0.12500
C838        C  0.76475377  0.18190553  0.64533133     0.01500
H839        H  0.83084275  0.19765439  0.58787592     0.14500
H840        H  0.71892057  0.21370678  0.65797868     0.14500
C841        C  0.75228404  0.15856944  0.66879367     0.36100
C842        C  0.79755146  0.25417627  0.57852328     0.36000
N843        N  0.74203315  0.13988873  0.68747095    -0.44200
N844        N  0.80726449  0.27347910  0.56026421    -0.44200
C845        C  0.70368940  0.42815911  0.61531916    -0.00600
C846        C  0.70358990  0.44765975  0.58790005    -0.12500
C847        C  0.72531919  0.47639647  0.58615216     0.01600
C848        C  0.74792169  0.48579769  0.61205179    -0.00700
C849        C  0.74590844  0.46768921  0.64007570    -0.12500
C850        C  0.72377959  0.43941911  0.64210080     0.01500
H851        H  0.68847790  0.43947008  0.56706169     0.14500
H852        H  0.76223644  0.47546355  0.66044401     0.14500
C853        C  0.72291519  0.42223455  0.67185846     0.36100
C854        C  0.72725204  0.99346971  0.55720794     0.36000
N855        N  0.72220020  0.40850337  0.69571478    -0.44200
N856        N  0.72840277  0.00815571  0.53390108    -0.44200
C857        C  0.81688867  0.44088590  0.21238423    -0.00600
C858        C  0.85039311  0.43095110  0.22746709    -0.12500
C859        C  0.85252328  0.42961884  0.26046221     0.01600
C860        C  0.82073760  0.43865219  0.27901430    -0.00700
C861        C  0.78709024  0.44822729  0.26395194    -0.12500
C862        C  0.78496547  0.44957837  0.23093850     0.01500
H863        H  0.87489640  0.42379836  0.21338857     0.14500
H864        H  0.76268420  0.45556682  0.27805304     0.14500
C865        C  0.75048391  0.46167742  0.21683762     0.36100
C866        C  0.88706585  0.41763193  0.27458614     0.36000
N867        N  0.72296049  0.47153496  0.20549262    -0.44200
N868        N  0.91464115  0.40783621  0.28589839    -0.44200
C869        C  0.95924365  0.41463269  0.36598262    -0.00600
C870        C  0.97811965  0.38770326  0.37901109    -0.12500
C871        C  0.01802747  0.38637337  0.37972696     0.01600
C872        C  0.03971947  0.41266609  0.36756565    -0.00700
C873        C  0.02073104  0.43771351  0.35163216    -0.12500
C874        C  0.98111703  0.43865342  0.35020809     0.01500
H875        H  0.96179467  0.36861682  0.39054495     0.14500
H876        H  0.03685017  0.45770471  0.34144214     0.14500
C877        C  0.96398047  0.46529387  0.33322891     0.36100
C878        C  0.03551037  0.35893557  0.39511941     0.36000
N879        N  0.95036793  0.48664117  0.31957878    -0.44200
N880        N  0.04943908  0.33685034  0.40737973    -0.44200
C881        C  0.88039971  0.48791666  0.46427291    -0.00600
C882        C  0.88782068  0.46982102  0.49180793    -0.12500
C883        C  0.88846840  0.48458617  0.52167783     0.01600
C884        C  0.88230594  0.01849107  0.52519767    -0.00700
C885        C  0.87538767  0.03718662  0.49809955    -0.12500
C886        C  0.87268099  0.02274546  0.46810639     0.01500
H887        H  0.89112203  0.44360385  0.49035234     0.14500
H888        H  0.86969925  0.06305977  0.50061422     0.14500
C889        C  0.86274217  0.04339949  0.44186212     0.36100
C890        C  0.89423989  0.46423775  0.54901651     0.36000
N891        N  0.85450905  0.06012126  0.42102457    -0.44200
N892        N  0.89871958  0.44787801  0.57090736    -0.44200
C893        C  0.76442111  0.38924509  0.46797230    -0.00600
C894        C  0.74603299  0.35899087  0.46530267    -0.12500
C895        C  0.73142703  0.34335900  0.49206286     0.01600
C896        C  0.73516737  0.35820999  0.52197378    -0.00700
C897        C  0.75335962  0.38852981  0.52458620    -0.12500
C898        C  0.76782124  0.40419786  0.49784619     0.01500
H899        H  0.74443138  0.34697865  0.44249009     0.14500
H900        H  0.75501166  0.40054500  0.54739252     0.14500
C901        C  0.78445176  0.43618960  0.50145379     0.36100
C902        C  0.71451469  0.31147831  0.48843331     0.36000
N903        N  0.79732156  0.46198382  0.50439954    -0.44200
N904        N  0.70151047  0.28575003  0.48534493    -0.44200
C905        C  0.74488303  0.01464164  0.37193675    -0.00600
C906        C  0.71664765  0.01912228  0.39515086    -0.12500
C907        C  0.69416096  0.04737648  0.39565912     0.01600
C908        C  0.69956758  0.07169613  0.37224371    -0.00700
C909        C  0.72535727  0.06544205  0.34743964    -0.12500
C910        C  0.74802207  0.03757947  0.34719155     0.01500
H911        H  0.71234462  0.49798916  0.40972166     0.14500
H912        H  0.72946754  0.08328310  0.32882512     0.14500
C913        C  0.77459614  0.03347777  0.32127454     0.36100
C914        C  0.66732665  0.05124754  0.42138611     0.36000
N915        N  0.79593009  0.03030876  0.30054779    -0.44200
N916        N  0.64582636  0.05433358  0.44201079    -0.44200
C917        C  0.75225890  0.26395370  0.37454074    -0.00600
C918        C  0.77654917  0.27015632  0.40008669    -0.12500
C919        C  0.79969286  0.29814563  0.40072973     0.01600
C920        C  0.79914173  0.32034610  0.37503286    -0.00700
C921        C  0.77745813  0.31217409  0.34830684    -0.12500
C922        C  0.75401559  0.28459745  0.34795404     0.01500
H923        H  0.77595141  0.25399751  0.42035918     0.14500
H924        H  0.77714860  0.32836414  0.32807126     0.14500
C925        C  0.73178841  0.27824141  0.31998061     0.36100
C926        C  0.82156158  0.30424340  0.42894942     0.36000
N927        N  0.71398255  0.27325155  0.29755066    -0.44200
N928        N  0.83896344  0.30906984  0.45164180    -0.44200
O929        O  0.79733476  0.87688114  0.35893578    -0.82300
C930        C  0.87106609  0.97079740  0.43445365     0.97100
O931        O  0.88056062  0.94112856  0.43249463    -0.71400
O932        O  0.81702495  0.91059449  0.44324940    -0.75000
Al933      Al  0.85455118  0.90557695  0.41201393     1.49000
C934        C  0.78259219  0.90289342  0.44015036     0.92300
O935        O  0.76064514  0.95970555  0.38478805    -0.81200
O936        O  0.84879077  0.95089708  0.32781569    -0.74800
Al937      Al  0.78247486  0.91903775  0.37260359     1.90100
O938        O  0.80540855  0.99048019  0.36479946    -0.73800
O939        O  0.90220309  0.94999178  0.37132507    -0.73700
O940        O  0.85437992  0.98417806  0.41151826    -0.79300
O941        O  0.89567706  0.89841510  0.38318784    -0.77600
O942        O  0.82916736  0.93005247  0.38472664    -1.13700
O943        O  0.83282254  0.86442589  0.39920260    -0.72900
C944        C  0.81087894  0.85569853  0.37718441     0.97800
C945        C  0.77157474  0.98682526  0.37419193     0.94200
Al946      Al  0.85099116  0.96601522  0.37004642     1.55600
O947        O  0.76686527  0.90259072  0.41328985    -0.77500
C948        C  0.91604852  0.92165957  0.37309105     0.98400
C949        C  0.81901227  0.94143447  0.31385119     0.93300
O950        O  0.78962783  0.93293103  0.32937857    -0.82800
O951        O  0.79771762  0.62174005  0.63324771    -0.82300
C952        C  0.87662163  0.53452238  0.55559554     0.97100
O953        O  0.88681664  0.56395446  0.55939943    -0.71400
O954        O  0.82552705  0.59634775  0.54855292    -0.75000
Al955      Al  0.86012131  0.59827196  0.58167201     1.49000
C956        C  0.79058323  0.60234690  0.55008387     0.92300
O957        O  0.76497690  0.54075178  0.60060175    -0.81200
O958        O  0.84850865  0.54783579  0.66198367    -0.74800
Al959      Al  0.78493645  0.58079362  0.61634671     1.90100
O960        O  0.80768053  0.50971119  0.62230078    -0.73800
O961        O  0.90478314  0.55081051  0.62055589    -0.73700
O962        O  0.85925299  0.51949944  0.57743258    -0.79300
O963        O  0.89907710  0.60310848  0.61262112    -0.77600
O964        O  0.83263129  0.57151396  0.60587220    -1.13700
O965        O  0.83730717  0.63823611  0.59671794    -0.72900
C966        C  0.81265978  0.64454593  0.61776071     0.97800
C967        C  0.77494440  0.51342557  0.61093630     0.94200
Al968      Al  0.85348151  0.53487601  0.61944170     1.55600
O969        O  0.77231342  0.59935035  0.57586972    -0.77500
C970        C  0.91883793  0.57916564  0.62138938     0.98400
C971        C  0.81784270  0.55619891  0.67555134     0.93300
O972        O  0.78919750  0.56458865  0.65930297    -0.82800
O973        O  0.20556539  0.93304240  0.32867860    -0.82300
C974        C  0.12593758  0.96530531  0.43685620     0.97100
O975        O  0.14202425  0.97972225  0.41401431    -0.71400
O976        O  0.19085867  0.98879761  0.36688369    -0.75000
Al977      Al  0.14486897  0.96366464  0.37188683     1.49000
C978        C  0.22427128  0.98460803  0.37679006     0.92300
O979        O  0.22916415  0.89847499  0.41127916    -0.81200
O980        O  0.16284978  0.86060486  0.39585063    -0.74800
Al981      Al  0.21308554  0.91694969  0.37142205     1.90100
O982        O  0.17898527  0.90422776  0.44193389    -0.73800
O983        O  0.09989568  0.89534709  0.38292663    -0.73700
O984        O  0.11615039  0.93567856  0.43414283    -0.79300
O985        O  0.09343732  0.94737996  0.37330587    -0.77600
O986        O  0.16657468  0.92704969  0.38468584    -1.13700
O987        O  0.14653016  0.95062933  0.32908620    -0.72900
C988        C  0.17614444  0.94251182  0.31397430     0.97800
C989        C  0.21351298  0.89718740  0.43835057     0.94200
Al990      Al  0.14135822  0.90104287  0.41120160     1.55600
O991        O  0.23484529  0.95687491  0.38564852    -0.77500
C992        C  0.07942849  0.91892841  0.37440370     0.98400
C993        C  0.18489671  0.85345642  0.37312218     0.93300
O994        O  0.19798926  0.87578112  0.35583490    -0.82800
O995        O  0.20891712  0.56773280  0.66210728    -0.82300
C996        C  0.12686379  0.53046784  0.55796572     0.97100
O997        O  0.14321856  0.51733613  0.58118261    -0.71400
O998        O  0.19302394  0.51094736  0.62738521    -0.75000
Al999      Al  0.14688196  0.53558083  0.62236306     1.49000
C1000       C  0.22615441  0.51458263  0.61615477     0.92300
O1001       O  0.23034124  0.59963168  0.57851668    -0.81200
O1002       O  0.16465296  0.63727306  0.59353833    -0.74800
Al1003     Al  0.21515140  0.58223773  0.61898517     1.90100
O1004       O  0.18015753  0.59130867  0.54875222    -0.73800
O1005       O  0.10196419  0.60303650  0.60916236    -0.73700
O1006       O  0.11712229  0.56015982  0.55954298    -0.79300
O1007       O  0.09553469  0.55160182  0.62142605    -0.77600
O1008       O  0.16842528  0.57142025  0.60725771    -1.13700
O1009       O  0.14934373  0.55116071  0.66432704    -0.72900
C1010       C  0.17950869  0.56007842  0.67799277     0.97800
C1011       C  0.21456635  0.59905571  0.55170630     0.94200
Al1012     Al  0.14287348  0.59601775  0.58019452     1.55600
O1013       O  0.23654505  0.54185877  0.60555175    -0.77500
C1014       C  0.08168471  0.57997590  0.61961765     0.98400
C1015       C  0.18629284  0.64525795  0.61612646     0.93300
O1016       O  0.19988162  0.62354746  0.63363773    -0.82800
O1017       O  0.29756020  0.62606007  0.35833386    -0.82300
C1018       C  0.37335405  0.71763259  0.43387706     0.97100
O1019       O  0.38281299  0.68792186  0.43173311    -0.71400
O1020       O  0.31995260  0.65683940  0.44292041    -0.75000
Al1021     Al  0.35663302  0.65258449  0.41091283     1.49000
C1022       C  0.28516608  0.65029490  0.44035200     0.92300
O1023       O  0.26303659  0.70827448  0.38672196    -0.81200
O1024       O  0.34986979  0.69856077  0.32788387    -0.74800
Al1025     Al  0.28372424  0.66765559  0.37322716     1.90100
O1026       O  0.30665867  0.73875120  0.36472873    -0.73800
O1027       O  0.40361313  0.69797684  0.37086734    -0.73700
O1028       O  0.35629174  0.73132856  0.41128482    -0.79300
O1029       O  0.39733346  0.64610417  0.38140295    -0.77600
O1030       O  0.33078072  0.67782203  0.38460051    -1.13700
O1031       O  0.33429243  0.61170026  0.39726749    -0.72900
C1032       C  0.31160883  0.60412785  0.37528245     0.97800
C1033       C  0.27340222  0.73533844  0.37566686     0.94200
Al1034     Al  0.35245122  0.71381312  0.36987784     1.55600
O1035       O  0.26876894  0.65061343  0.41380519    -0.77500
C1036       C  0.41763673  0.66971176  0.37201783     0.98400
C1037       C  0.31981285  0.68921380  0.31430954     0.93300
O1038       O  0.29022596  0.68198588  0.33020317    -0.82800
O1039       O  0.30044758  0.87300744  0.63285056    -0.82300
C1040       C  0.37534655  0.78263815  0.55459699     0.97100
O1041       O  0.38521639  0.81212556  0.55772713    -0.71400
O1042       O  0.32169443  0.84232188  0.54744888    -0.75000
Al1043     Al  0.35835498  0.84654975  0.57916839     1.49000
C1044       C  0.28692564  0.84897858  0.55046356     0.92300
O1045       O  0.26386344  0.79110430  0.60489426    -0.81200
O1046       O  0.35119978  0.79656067  0.66140892    -0.74800
Al1047     Al  0.28585011  0.83124534  0.61804414     1.90100
O1048       O  0.30804909  0.75900926  0.62292752    -0.73800
O1049       O  0.40512161  0.80084232  0.61848421    -0.73700
O1050       O  0.35809504  0.76812546  0.57675209    -0.79300
O1051       O  0.39838358  0.85295501  0.60871298    -0.77600
O1052       O  0.33250261  0.82074420  0.60553179    -1.13700
O1053       O  0.33600138  0.88711386  0.59278094    -0.72900
C1054       C  0.31385395  0.89484575  0.61516991     0.97800
C1055       C  0.27434672  0.76342026  0.61387349     0.94200
Al1056     Al  0.35396086  0.78407819  0.61874041     1.55600
O1057       O  0.27078135  0.84821915  0.57739081    -0.77500
C1058       C  0.41854007  0.82952504  0.61825537     0.98400
C1059       C  0.32174449  0.80594232  0.67591379     0.93300
O1060       O  0.29296894  0.81643120  0.66104881    -0.82800
O1061       O  0.70794032  0.68220232  0.32848274    -0.82300
C1062       C  0.62593179  0.71487510  0.43522023     0.97100
O1063       O  0.64268632  0.72979513  0.41296579    -0.71400
O1064       O  0.69221459  0.73888320  0.36591612    -0.75000
Al1065     Al  0.64643727  0.71365264  0.37085642     1.49000
C1066       C  0.72584733  0.73515109  0.37541751     0.92300
O1067       O  0.73014362  0.64983725  0.41245302    -0.81200
O1068       O  0.66392780  0.61064293  0.39513321    -0.74800
Al1069     Al  0.71511345  0.66729479  0.37172961     1.90100
O1070       O  0.67824682  0.65418466  0.44135694    -0.73800
O1071       O  0.60196102  0.64523037  0.38040969    -0.73700
O1072       O  0.61603688  0.68537015  0.43195645    -0.79300
O1073       O  0.59496686  0.69738264  0.37188108    -0.77600
O1074       O  0.66814790  0.67717438  0.38403809    -1.13700
O1075       O  0.64891293  0.70008876  0.32847879    -0.72900
C1076       C  0.67809513  0.69046911  0.31363520     0.97800
C1077       C  0.71296967  0.64767885  0.43889684     0.94200
Al1078     Al  0.64207866  0.65097438  0.40975464     1.55600
O1079       O  0.73649036  0.70779678  0.38528575    -0.77500
C1080       C  0.58117205  0.66885276  0.37267761     0.98400
C1081       C  0.68672459  0.60337646  0.37308346     0.93300
O1082       O  0.70115924  0.62567255  0.35651005    -0.82800
O1083       O  0.70735367  0.81656642  0.66086796    -0.82300
C1084       C  0.62489161  0.77927258  0.55673577     0.97100
O1085       O  0.64105812  0.76607362  0.57997158    -0.71400
O1086       O  0.69052755  0.75914919  0.62613856    -0.75000
Al1087     Al  0.64503110  0.78440959  0.62101089     1.49000
C1088       C  0.72395975  0.76243604  0.61549966     0.92300
O1089       O  0.72954384  0.84657319  0.57651609    -0.81200
O1090       O  0.66528402  0.88549399  0.59050995    -0.74800
Al1091     Al  0.71412190  0.83027463  0.61741669     1.90100
O1092       O  0.67930711  0.83817518  0.54679469    -0.73800
O1093       O  0.60203160  0.85269603  0.60730991    -0.73700
O1094       O  0.61523232  0.80893382  0.55839151    -0.79300
O1095       O  0.59401491  0.80144772  0.62002799    -0.77600
O1096       O  0.66730591  0.81983524  0.60571603    -1.13700
O1097       O  0.64795818  0.79984981  0.66283886    -0.72900
C1098       C  0.67804360  0.80857953  0.67676415     0.97800
C1099       C  0.71373211  0.84591143  0.54967059     0.94200
Al1100     Al  0.64232655  0.84440481  0.57824478     1.55600
O1101       O  0.73492542  0.78950785  0.60486103    -0.77500
C1102       C  0.58100524  0.83010147  0.61772462     0.98400
C1103       C  0.68685838  0.89369256  0.61303439     0.93300
O1104       O  0.69968125  0.87220937  0.63123113    -0.82800
O1105       O  0.78476140  0.93566250  0.16197638    -0.82300
C1106       C  0.86846016  0.96829181  0.05601401     0.97100
O1107       O  0.85134484  0.98287603  0.07831724    -0.71400
O1108       O  0.80118825  0.99155795  0.12497906    -0.75000
Al1109     Al  0.84700388  0.96641219  0.12027640     1.49000
C1110       C  0.76766898  0.98748238  0.11508500     0.92300
O1111       O  0.76280336  0.90210020  0.07867972    -0.81200
O1112       O  0.82687648  0.86379357  0.09386711    -0.74800
Al1113     Al  0.77806573  0.92009484  0.11904059     1.90100
O1114       O  0.81359818  0.90901815  0.04867694    -0.73800
O1115       O  0.89036549  0.89762193  0.10951463    -0.73700
O1116       O  0.87753977  0.93862985  0.05889527    -0.79300
O1117       O  0.89806700  0.94966141  0.11943753    -0.77600
O1118       O  0.82492121  0.93018372  0.10660633    -1.13700
O1119       O  0.84427323  0.95268940  0.16271776    -0.72900
C1120       C  0.81437595  0.94394303  0.17711276     0.97800
C1121       C  0.77896494  0.90193989  0.05179306     0.94200
Al1122     Al  0.85022286  0.90427511  0.08018838     1.55600
O1123       O  0.75705040  0.96002312  0.10525603    -0.77500
C1124       C  0.91132748  0.92101112  0.11831306     0.98400
C1125       C  0.80445725  0.85669858  0.11635474     0.93300
O1126       O  0.79260397  0.87896467  0.13427838    -0.82800
O1127       O  0.78901505  0.56852221  0.82859917    -0.82300
C1128       C  0.86918424  0.53251796  0.93488631     0.97100
O1129       O  0.85209295  0.51874908  0.91224678    -0.71400
O1130       O  0.80303930  0.51147559  0.86540633    -0.75000
Al1131     Al  0.84919869  0.53572360  0.87044337     1.49000
C1132       C  0.76938128  0.51594049  0.87484344     0.92300
O1133       O  0.76677767  0.60091640  0.91267385    -0.81200
O1134       O  0.83283753  0.63834180  0.89784137    -0.74800
Al1135     Al  0.78191837  0.58346233  0.87190506     1.90100
O1136       O  0.81705649  0.59307827  0.94219373    -0.73800
O1137       O  0.89486426  0.60351324  0.88192124    -0.73700
O1138       O  0.87970733  0.56195916  0.93230991    -0.79300
O1139       O  0.90069237  0.55152105  0.87141871    -0.77600
O1140       O  0.82821455  0.57226608  0.88430285    -1.13700
O1141       O  0.84741957  0.54958657  0.82819533    -0.72900
C1142       C  0.81829975  0.55889114  0.81346874     0.97800
C1143       C  0.78295575  0.60146254  0.93944660     0.94200
Al1144     Al  0.85415948  0.59726041  0.91105012     1.55600
O1145       O  0.75910936  0.54346603  0.88479531    -0.77500
C1146       C  0.91494488  0.57989594  0.87257487     0.98400
C1147       C  0.81089161  0.64649174  0.87570921     0.93300
O1148       O  0.79789048  0.62489604  0.85750639    -0.82800
O1149       O  0.19451849  0.87934119  0.13206299    -0.82300
C1150       C  0.11889027  0.96949899  0.05629327     0.97100
O1151       O  0.10917689  0.93980687  0.05857410    -0.71400
O1152       O  0.17110007  0.90728192  0.04714193    -0.75000
Al1153     Al  0.13481665  0.90467224  0.07982890     1.49000
C1154       C  0.20580080  0.90028179  0.04936662     0.92300
O1155       O  0.22920404  0.96079177  0.10175534    -0.81200
O1156       O  0.14408783  0.95235472  0.16287532    -0.74800
Al1157     Al  0.20856878  0.92050787  0.11633637     1.90100
O1158       O  0.18625327  0.99150235  0.12434683    -0.73800
O1159       O  0.08881599  0.95087904  0.12052731    -0.73700
O1160       O  0.13555924  0.98359921  0.07897293    -0.79300
O1161       O  0.09455406  0.89904693  0.10971066    -0.77600
O1162       O  0.16135780  0.93043407  0.10558161    -1.13700
O1163       O  0.15650778  0.86417682  0.09415442    -0.72900
C1164       C  0.17982520  0.85703040  0.11567572     0.97800
C1165       C  0.21911016  0.98796550  0.11273335     0.94200
Al1166     Al  0.14026277  0.96667045  0.12045532     1.55600
O1167       O  0.22247372  0.90244042  0.07575061    -0.77500
C1168       C  0.07457908  0.92260516  0.11938373     0.98400
C1169       C  0.17469255  0.94380052  0.17610473     0.93300
O1170       O  0.20350025  0.93590603  0.15952969    -0.82800
O1171       O  0.19764936  0.62173521  0.85776444    -0.82300
C1172       C  0.12172596  0.53250427  0.93472562     0.97100
O1173       O  0.11135001  0.56187533  0.93159724    -0.71400
O1174       O  0.17311828  0.59412420  0.94235464    -0.75000
Al1175     Al  0.13758948  0.59677111  0.91005530     1.49000
C1176       C  0.20790958  0.60090787  0.94014745     0.92300
O1177       O  0.23285697  0.54071320  0.88736039    -0.81200
O1178       O  0.14670945  0.54867361  0.82841120    -0.74800
Al1179     Al  0.21175192  0.58085477  0.87335952     1.90100
O1180       O  0.18944316  0.50982040  0.86609758    -0.73800
O1181       O  0.09219630  0.54976132  0.87125781    -0.73700
O1182       O  0.13922014  0.51810779  0.91249513    -0.79300
O1183       O  0.09794245  0.60201831  0.87989581    -0.77600
O1184       O  0.16453939  0.57080395  0.88470542    -1.13700
O1185       O  0.15987952  0.63720789  0.89588710    -0.72900
C1186       C  0.18366194  0.64411911  0.87442228     0.97800
C1187       C  0.22277091  0.51350330  0.87646028     0.94200
Al1188     Al  0.14350101  0.53437719  0.87068602     1.55600
O1189       O  0.22537797  0.59877467  0.91392066    -0.77500
C1190       C  0.07801174  0.57798470  0.87118243     0.98400
C1191       C  0.17671651  0.55834201  0.81466162     0.93300
O1192       O  0.20626440  0.56563753  0.83034073    -0.82800
O1193       O  0.28394853  0.68379832  0.16273995    -0.82300
C1194       C  0.36576439  0.71905622  0.05689159     0.97100
O1195       O  0.34940470  0.73345499  0.07969231    -0.71400
O1196       O  0.30046925  0.74143675  0.12699645    -0.75000
Al1197     Al  0.34566368  0.71632823  0.12145454     1.49000
C1198       C  0.26665393  0.73806293  0.11788668     0.92300
O1199       O  0.26093800  0.65389908  0.07918698    -0.81200
O1200       O  0.32769752  0.61412275  0.09482193    -0.74800
Al1201     Al  0.27645261  0.67007044  0.11972429     1.90100
O1202       O  0.31233733  0.65812679  0.04960949    -0.73800
O1203       O  0.38986440  0.64833129  0.10990908    -0.73700
O1204       O  0.37524020  0.68944066  0.05937789    -0.79300
O1205       O  0.39679600  0.70021773  0.12010570    -0.77600
O1206       O  0.32353042  0.68015367  0.10743231    -1.13700
O1207       O  0.34312047  0.70177828  0.16361031    -0.72900
C1208       C  0.31354387  0.69192693  0.17788004     0.97800
C1209       C  0.27732713  0.65231672  0.05250128     0.94200
Al1210     Al  0.34926209  0.65457777  0.08089901     1.55600
O1211       O  0.25545647  0.71091814  0.10759905    -0.77500
C1212       C  0.41023749  0.67171413  0.11947827     0.98400
C1213       C  0.30497570  0.60621016  0.11669344     0.93300
O1214       O  0.28975229  0.62788678  0.13355790    -0.82800
O1215       O  0.29215430  0.81410929  0.82741089    -0.82300
C1216       C  0.37053459  0.78268225  0.93491685     0.97100
O1217       O  0.35566893  0.76813893  0.91169171    -0.71400
O1218       O  0.30847067  0.75825364  0.86461298    -0.75000
Al1219     Al  0.35313561  0.78430227  0.86989259     1.49000
C1220       C  0.27444149  0.76134185  0.87369210     0.92300
O1221       O  0.26576338  0.84668809  0.91036944    -0.81200
O1222       O  0.33027236  0.88678465  0.89571426    -0.74800
Al1223     Al  0.28338932  0.82900299  0.87019638     1.90100
O1224       O  0.31547216  0.84203274  0.94105083    -0.73800
O1225       O  0.39489146  0.85385472  0.88190120    -0.73700
O1226       O  0.37984680  0.81246104  0.93255368    -0.79300
O1227       O  0.40351409  0.80201563  0.87157693    -0.77600
O1228       O  0.32982857  0.82007136  0.88334954    -1.13700
O1229       O  0.35175598  0.79754705  0.82708901    -0.72900
C1230       C  0.32225425  0.80632979  0.81252504     0.97800
C1231       C  0.28075596  0.84838116  0.93754073     0.94200
Al1232     Al  0.35347061  0.84666366  0.91027630     1.55600
O1233       O  0.26264671  0.78848816  0.88345713    -0.77500
C1234       C  0.41605107  0.83090809  0.87251239     0.98400
C1235       C  0.30825838  0.89275242  0.87291763     0.93300
O1236       O  0.29806147  0.87000012  0.85506055    -0.82800
O1237       O  0.69699603  0.62840407  0.13158009    -0.82300
C1238       C  0.61515030  0.71538532  0.05724944     0.97100
O1239       O  0.60573309  0.68568450  0.06038715    -0.71400
O1240       O  0.66757581  0.65479562  0.04837047    -0.75000
Al1241     Al  0.63309746  0.65144749  0.08164133     1.49000
C1242       C  0.70269996  0.64997079  0.04918427     0.92300
O1243       O  0.72590786  0.71127526  0.10102251    -0.81200
O1244       O  0.64312263  0.69978146  0.16345491    -0.74800
Al1245     Al  0.70775389  0.67020490  0.11577614     1.90100
O1246       O  0.68240890  0.74041128  0.12457034    -0.73800
O1247       O  0.58658757  0.69694384  0.12219175    -0.73700
O1248       O  0.63109998  0.73061596  0.07964504    -0.79300
O1249       O  0.59403264  0.64509939  0.11245019    -0.77600
O1250       O  0.65960698  0.67833790  0.10630432    -1.13700
O1251       O  0.65690460  0.61160014  0.09581994    -0.72900
C1252       C  0.68180623  0.60546605  0.11644643     0.97800
C1253       C  0.71517674  0.73802227  0.11252062     0.94200
Al1254     Al  0.63744673  0.71407279  0.12128366     1.55600
O1255       O  0.72084005  0.65306576  0.07481348    -0.77500
C1256       C  0.57312095  0.66836865  0.12126335     0.98400
C1257       C  0.67440390  0.69195827  0.17609333     0.88500
O1258       O  0.70319426  0.68508703  0.15907582    -0.82800
O1259       O  0.69517224  0.87384068  0.85924970    -0.82300
C1260       C  0.62223704  0.78058489  0.93613882     0.97100
O1261       O  0.61297634  0.81032429  0.93464774    -0.71400
O1262       O  0.67712250  0.83994528  0.94431080    -0.75000
Al1263     Al  0.63960018  0.84564616  0.91386443     1.49000
C1264       C  0.71135479  0.84812002  0.94079027     0.92300
O1265       O  0.73288185  0.79186746  0.88524384    -0.81200
O1266       O  0.64477118  0.79973473  0.82931441    -0.74800
Al1267     Al  0.71084826  0.83217374  0.87301369     1.90100
O1268       O  0.68822963  0.76039226  0.86611503    -0.73800
O1269       O  0.59113180  0.80205602  0.87294716    -0.73700
O1270       O  0.63868195  0.76737905  0.91279900    -0.79300
O1271       O  0.59906279  0.85340555  0.88569024    -0.77600
O1272       O  0.66442799  0.82107882  0.88594827    -1.13700
O1273       O  0.66172331  0.88666907  0.90097763    -0.72900
C1274       C  0.68259084  0.89519961  0.87800014     0.97800
C1275       C  0.72204127  0.76444961  0.87530797     0.94200
Al1276     Al  0.64238172  0.78520988  0.87146893     1.55600
O1277       O  0.72674926  0.84924386  0.91360940    -0.77500
C1278       C  0.57812709  0.83073534  0.87551416     0.98400
C1279       C  0.67431662  0.80874897  0.81462612     0.93300
O1280       O  0.70363302  0.81771457  0.82980207    -0.82800
C1281       C  0.61060947  0.73117656  0.02602560    -0.00600
C1282       C  0.62251885  0.71388575  0.99913429    -0.12500
C1283       C  0.62517970  0.72876712  0.96946085     0.01600
C1284       C  0.61512285  0.76199433  0.96600330    -0.00700
C1285       C  0.60084643  0.77869078  0.99277635    -0.12500
C1286       C  0.59876710  0.76368465  0.02255773     0.01500
H1287       H  0.63186667  0.68877802  0.00164539     0.14500
H1288       H  0.59242531  0.80402836  0.99079809     0.14500
C1289       C  0.58399584  0.78190650  0.04912615     0.36100
C1290       C  0.63980631  0.70939111  0.94356848     0.36000
N1291       N  0.57188646  0.79634766  0.07044085    -0.44200
N1292       N  0.65170272  0.69374752  0.92297569    -0.44200
C1293       C  0.45696478  0.83669469  0.86598854    -0.00600
C1294       C  0.47620362  0.86054464  0.88360070    -0.12500
C1295       C  0.51602387  0.86088302  0.88510088     0.01600
C1296       C  0.53728432  0.83670261  0.86889748    -0.00700
C1297       C  0.51802920  0.81509811  0.84871956    -0.12500
C1298       C  0.47832889  0.81529281  0.84668751     0.01500
H1299       H  0.46012150  0.87745820  0.89815487     0.14500
H1300       H  0.53392036  0.79705763  0.83542859     0.14500
C1301       C  0.46020814  0.79295882  0.82497199     0.36100
C1302       C  0.53373578  0.88459880  0.90560597     0.36000
N1303       N  0.44565723  0.77529483  0.80738888    -0.44200
N1304       N  0.54787298  0.90365860  0.92201570    -0.44200
C1305       C  0.53172987  0.66365363  0.12758937    -0.00600
C1306       C  0.51227366  0.68828799  0.14415009    -0.12500
C1307       C  0.47252540  0.69005207  0.14397523     0.01600
C1308       C  0.45110999  0.66666305  0.12697914    -0.00700
C1309       C  0.47030464  0.64008885  0.11331289    -0.12500
C1310       C  0.51019315  0.63842303  0.11333724     0.01500
H1311       H  0.52825494  0.70736698  0.15592868     0.14500
H1312       H  0.45433247  0.62170859  0.10053571     0.14500
C1313       C  0.52790216  0.61201816  0.09616883     0.36100
C1314       C  0.45478760  0.71691042  0.16051744     0.36000
N1315       N  0.54193331  0.59083371  0.08231291    -0.44200
N1316       N  0.44065325  0.73851365  0.17367210    -0.44200
C1317       C  0.37212400  0.73574703  0.02618408    -0.00600
C1318       C  0.37069529  0.71687728  0.99843007    -0.12500
C1319       C  0.37203609  0.73128176  0.96849174     0.01600
C1320       C  0.37500381  0.76555165  0.96570404    -0.00700
C1321       C  0.37863215  0.78425974  0.99352589    -0.12500
C1322       C  0.37716942  0.76973713  0.02351906     0.01500
H1323       H  0.36711736  0.69066520  0.00005589     0.14500
H1324       H  0.38126405  0.81050419  0.99199004     0.14500
C1325       C  0.38138774  0.79023174  0.05107425     0.36100
C1326       C  0.36997704  0.71007213  0.94123575     0.36000
N1327       N  0.38499980  0.80661843  0.07316863    -0.44200
N1328       N  0.36836677  0.69299721  0.91946000    -0.44200
C1329       C  0.24780289  0.98411368  0.87436600    -0.00600
C1330       C  0.23362079  0.95720758  0.85758835    -0.12500
C1331       C  0.25354518  0.92812280  0.85538566     0.01600
C1332       C  0.28973423  0.92513858  0.86979365    -0.00700
C1333       C  0.30499765  0.95249750  0.88543414    -0.12500
C1334       C  0.28453203  0.98188139  0.88771513     0.01500
H1335       H  0.20581712  0.95835432  0.84660298     0.14500
H1336       H  0.33251320  0.95064168  0.89677023     0.14500
C1337       C  0.29040652  0.50462548  0.91850572     0.36100
C1338       C  0.23377861  0.90137087  0.84029625     0.36000
N1339       N  0.29776980  0.52335528  0.93805364    -0.44200
N1340       N  0.21723842  0.88031894  0.82829703    -0.44200
C1341       C  0.24817973  0.73310118  0.87183038    -0.00600
C1342       C  0.21873879  0.72981482  0.89419555    -0.12500
C1343       C  0.19522114  0.70209050  0.89454677     0.01600
C1344       C  0.20004980  0.67748526  0.87125680    -0.00700
C1345       C  0.22765468  0.68233410  0.84748829    -0.12500
C1346       C  0.25212234  0.70914632  0.84800270     0.01500
H1347       H  0.21535648  0.74817705  0.91251452     0.14500
H1348       H  0.23196416  0.66396996  0.82931718     0.14500
C1349       C  0.28165013  0.71071845  0.82411936     0.36100
C1350       C  0.16841264  0.69880957  0.92035015     0.36000
N1351       N  0.30553432  0.71155647  0.80518149    -0.44200
N1352       N  0.14718610  0.69617764  0.94122482    -0.44200
C1353       C  0.25666541  0.64128175  0.02423639    -0.00600
C1354       C  0.27117995  0.65025800  0.99446602    -0.12500
C1355       C  0.25653744  0.63685662  0.96674042     0.01600
C1356       C  0.22693563  0.61362151  0.96855011    -0.00700
C1357       C  0.21181972  0.60518999  0.99828817    -0.12500
C1358       C  0.22618286  0.61885755  0.02601428     0.01500
H1359       H  0.29428927  0.66772206  0.99283094     0.14500
H1360       H  0.18864583  0.58781012  0.99991633     0.14500
C1361       C  0.20982078  0.60843578  0.05576408     0.36100
C1362       C  0.27151518  0.64848393  0.93693550     0.36000
N1363       N  0.19651402  0.60010247  0.07951307    -0.44200
N1364       N  0.28351192  0.65791842  0.91310924    -0.44200
C1365       C  0.25912911  0.85995951  0.96569343    -0.00600
C1366       C  0.27510422  0.85482156  0.99569088    -0.12500
C1367       C  0.25911445  0.86832037  0.02304028     0.01600
C1368       C  0.22591668  0.88753103  0.02093778    -0.00700
C1369       C  0.20952879  0.89229122  0.99101776    -0.12500
C1370       C  0.22570453  0.87889589  0.96357525     0.01500
H1371       H  0.30077334  0.84024227  0.99790496     0.14500
H1372       H  0.18382268  0.90682511  0.98893030     0.14500
C1373       C  0.20783186  0.88598190  0.93374251     0.36100
C1374       C  0.27718554  0.86124545  0.05282073     0.36000
N1375       N  0.19314932  0.89181732  0.91001938    -0.44200
N1376       N  0.29182330  0.85552318  0.07659659    -0.44200
C1377       C  0.11290489  0.98684605  0.02591044    -0.00600
C1378       C  0.11091120  0.96830330  0.99793153    -0.12500
C1379       C  0.11195522  0.98315574  0.96816275     0.01600
C1380       C  0.11509880  0.51589059  0.96539092    -0.00700
C1381       C  0.11275001  0.53497957  0.99304582    -0.12500
C1382       C  0.11214522  0.52060882  0.02305968     0.01500
H1383       H  0.11029086  0.94192353  0.99918185     0.14500
H1384       H  0.11294282  0.56133440  0.99134284     0.14500
C1385       C  0.10982648  0.54159232  0.05046637     0.36100
C1386       C  0.11010946  0.96257628  0.94045588     0.36000
N1387       N  0.10777210  0.55846627  0.07237495    -0.44200
N1388       N  0.10852713  0.94608639  0.91826007    -0.44200
C1389       C  0.19459004  0.82318843  0.11934839    -0.00600
C1390       C  0.22037210  0.81740340  0.14400147    -0.12500
C1391       C  0.24344628  0.78975056  0.14422119     0.01600
C1392       C  0.24026715  0.76620878  0.11991149    -0.00700
C1393       C  0.21223711  0.77034999  0.09677681    -0.12500
C1394       C  0.18986621  0.79866177  0.09595774     0.01500
H1395       H  0.22428486  0.83556021  0.16242776     0.14500
H1396       H  0.20927153  0.75224915  0.07817154     0.14500
C1397       C  0.16444553  0.80262204  0.06957370     0.36100
C1398       C  0.27074289  0.78668566  0.16945200     0.36000
N1399       N  0.14427609  0.80581945  0.04828645    -0.44200
N1400       N  0.29279703  0.78443108  0.18952897    -0.44200
C1401       C  0.24755236  0.51426622  0.11574634    -0.00600
C1402       C  0.24880795  0.53249602  0.14385802    -0.12500
C1403       C  0.27100079  0.56077776  0.14609663     0.01600
C1404       C  0.29166555  0.57189310  0.11943034    -0.00700
C1405       C  0.29304275  0.55194132  0.09226018    -0.12500
C1406       C  0.27143730  0.52321452  0.09031885     0.01500
H1407       H  0.23176470  0.52488805  0.16403907     0.14500
H1408       H  0.30890794  0.55988496  0.07156805     0.14500
C1409       C  0.26767759  0.00771760  0.05845448     0.36100
C1410       C  0.27156800  0.57809618  0.17587469     0.36000
N1411       N  0.26685102  0.99371936  0.03467405    -0.44200
N1412       N  0.27220716  0.59186957  0.19978384    -0.44200
C1413       C  0.95621961  0.58399144  0.86544902    -0.00600
C1414       C  0.97544567  0.55753479  0.85167989    -0.12500
C1415       C  0.01510073  0.55615662  0.85091292     0.01600
C1416       C  0.03684109  0.58185234  0.86413326    -0.00700
C1417       C  0.01775091  0.60991701  0.87476327    -0.12500
C1418       C  0.97783439  0.61124080  0.87556079     0.01500
H1419       H  0.95945154  0.53677975  0.84291833     0.14500
H1420       H  0.03392312  0.63012354  0.88445463     0.14500
C1421       C  0.96027588  0.64001072  0.88877266     0.36100
C1422       C  0.03227137  0.52717478  0.83769950     0.36000
N1423       N  0.94629011  0.66312057  0.89934399    -0.44200
N1424       N  0.04586133  0.50380999  0.82730822    -0.44200
C1425       C  0.72241290  0.63896999  0.02014244    -0.00600
C1426       C  0.76221312  0.63863065  0.01999832    -0.12500
C1427       C  0.78250017  0.62616467  0.99434309     0.01600
C1428       C  0.76276081  0.61381962  0.96766942    -0.00700
C1429       C  0.72299096  0.61469202  0.96748750    -0.12500
C1430       C  0.70264147  0.62676483  0.99337756     0.01500
H1431       H  0.77775479  0.64797100  0.04019765     0.14500
H1432       H  0.70760934  0.60534473  0.94720431     0.14500
C1433       C  0.66163763  0.62483287  0.99183006     0.36100
C1434       C  0.82353395  0.62720371  0.99626745     0.36000
N1435       N  0.62882864  0.62301178  0.99031062    -0.44200
N1436       N  0.85636388  0.62816128  0.99806639    -0.44200
C1437       C  0.79560459  0.68036377  0.87347580    -0.00600
C1438       C  0.77314982  0.68818702  0.84714365    -0.12500
C1439       C  0.74992204  0.71582152  0.84704352     0.01600
C1440       C  0.74910846  0.73685899  0.87348168    -0.00700
C1441       C  0.77374554  0.73079588  0.89872696    -0.12500
C1442       C  0.79659099  0.70274976  0.89917043     0.01500
H1443       H  0.77221425  0.67177907  0.82701506     0.14500
H1444       H  0.77365621  0.74712359  0.91894612     0.14500
C1445       C  0.81857418  0.69683498  0.92728808     0.36100
C1446       C  0.72699759  0.72195230  0.81946190     0.36000
N1447       N  0.83602081  0.69231264  0.94996235    -0.44200
N1448       N  0.70859069  0.72692176  0.79741210    -0.44200
C1449       C  0.74302589  0.98635045  0.87442249    -0.00600
C1450       C  0.71875822  0.98001719  0.90013705    -0.12500
C1451       C  0.69599152  0.95180263  0.90089967     0.01600
C1452       C  0.69709838  0.92934551  0.87527491    -0.00700
C1453       C  0.71876110  0.93760080  0.84837199    -0.12500
C1454       C  0.74158231  0.96559534  0.84778268     0.01500
H1455       H  0.71907083  0.99625947  0.92041768     0.14500
H1456       H  0.71942119  0.92128105  0.82815576     0.14500
C1457       C  0.76339728  0.97238936  0.81947850     0.36100
C1458       C  0.67380529  0.94581399  0.92915428     0.36000
N1459       N  0.78080327  0.97782803  0.79677513    -0.44200
N1460       N  0.65609281  0.94102821  0.95184084    -0.44200
C1461       C  0.95254342  0.91623368  0.12471386    -0.00600
C1462       C  0.97186186  0.94029253  0.14213708    -0.12500
C1463       C  0.01167117  0.94140732  0.14297750     0.01600
C1464       C  0.03324510  0.91805448  0.12601426    -0.00700
C1465       C  0.01394903  0.89220378  0.11117963    -0.12500
C1466       C  0.97406476  0.89112482  0.11027730     0.01500
H1467       H  0.95581199  0.95927837  0.15404576     0.14500
H1468       H  0.02998986  0.87393023  0.09826234     0.14500
C1469       C  0.95644171  0.86545897  0.09206273     0.36100
C1470       C  0.02942104  0.96738256  0.16075220     0.36000
N1471       N  0.94237655  0.84490283  0.07739776    -0.44200
N1472       N  0.04357040  0.98822067  0.17498905    -0.44200
C1473       C  0.87517077  0.51512596  0.96536080    -0.00600
C1474       C  0.87724292  0.53360252  0.99338088    -0.12500
C1475       C  0.87726793  0.51869839  0.02318028     0.01600
C1476       C  0.87599820  0.98486029  0.02541669    -0.00700
C1477       C  0.87651401  0.96585442  0.99768562    -0.12500
C1478       C  0.87700612  0.98028965  0.96771887     0.01500
H1479       H  0.87726237  0.56002845  0.99213486     0.14500
H1480       H  0.87443556  0.93953905  0.99930924     0.14500
C1481       C  0.87634848  0.95921694  0.94033142     0.36100
C1482       C  0.87903956  0.53927911  0.05087670     0.36000
N1483       N  0.87583157  0.94225699  0.91843341    -0.44200
N1484       N  0.88055623  0.55575104  0.07308803    -0.44200
C1485       C  0.75895661  0.88989076  0.02385597    -0.00600
C1486       C  0.74235712  0.85884739  0.02531107    -0.12500
C1487       C  0.72851171  0.84385541  0.99800757     0.01600
C1488       C  0.73154058  0.86002465  0.96871097    -0.00700
C1489       C  0.74814614  0.89107801  0.96727906    -0.12500
C1490       C  0.76154621  0.90622484  0.99465720     0.01500
H1491       H  0.74128206  0.84589470  0.04764447     0.14500
H1492       H  0.74899457  0.90414035  0.94499749     0.14500
C1493       C  0.77572256  0.93920878  0.99260574     0.36100
C1494       C  0.71213895  0.81161736  0.00043481     0.36000
N1495       N  0.78636369  0.96585577  0.99100773    -0.44200
N1496       N  0.69910678  0.78576655  0.00230097    -0.44200
C1497       C  0.74310054  0.51491436  0.11704975    -0.00600
C1498       C  0.74445478  0.53565311  0.14343220    -0.12500
C1499       C  0.72187067  0.56364319  0.14527726     0.01600
C1500       C  0.69754254  0.57191627  0.11993934    -0.00700
C1501       C  0.69445584  0.54994575  0.09439749    -0.12500
C1502       C  0.71684043  0.52164126  0.09281384     0.01500
H1503       H  0.76364473  0.53013242  0.16264359     0.14500
H1504       H  0.67632659  0.55584923  0.07460518     0.14500
C1505       C  0.71267663  0.00211706  0.06420128     0.36100
C1506       C  0.72510414  0.58371365  0.17326247     0.36000
N1507       N  0.71139602  0.98643026  0.04144982    -0.44200
N1508       N  0.72780651  0.59980198  0.19565882    -0.44200
C1509       C  0.78723526  0.82342576  0.11860287    -0.00600
C1510       C  0.79060308  0.80213359  0.09248613    -0.12500
C1511       C  0.76792025  0.77397678  0.08996772     0.01600
C1512       C  0.74137843  0.76642049  0.11403534    -0.00700
C1513       C  0.73929149  0.78668455  0.14074898    -0.12500
C1514       C  0.76170296  0.81478493  0.14332980     0.01500
H1515       H  0.80935049  0.80843204  0.07297073     0.14500
H1516       H  0.71953155  0.78073523  0.15970398     0.14500
C1517       C  0.75649866  0.83469139  0.17125245     0.36100
C1518       C  0.77039502  0.75469535  0.06142225     0.36000
N1519       N  0.75197860  0.85068488  0.19353513    -0.44200
N1520       N  0.77217870  0.73930897  0.03849016    -0.44200
C1521       C  0.67847021  0.80876700  0.71203253    -0.00600
C1522       C  0.64451735  0.80109372  0.72810563    -0.12500
C1523       C  0.64251269  0.80040812  0.76108254     0.01600
C1524       C  0.67496095  0.80838796  0.77931785    -0.00700
C1525       C  0.70913151  0.81576631  0.76328565    -0.12500
C1526       C  0.71131944  0.81566703  0.73012956     0.01500
H1527       H  0.61905387  0.79523351  0.71485343     0.14500
H1528       H  0.73457462  0.82129529  0.77667374     0.14500
C1529       C  0.74793099  0.82195404  0.71567564     0.36100
C1530       C  0.60659575  0.79077637  0.77498609     0.36000
N1531       N  0.77736661  0.82677549  0.70416200    -0.44200
N1532       N  0.57771375  0.78265887  0.78566012    -0.44200
C1533       C  0.67727266  0.68958407  0.27842523    -0.00600
C1534       C  0.71158643  0.69054155  0.26116620    -0.12500
C1535       C  0.71175301  0.69122811  0.22793520     0.01600
C1536       C  0.67690570  0.69086466  0.21121752    -0.00700
C1537       C  0.64281002  0.68927289  0.22854956    -0.12500
C1538       C  0.64260824  0.68845466  0.26153902     0.01500
H1539       H  0.73841806  0.69143558  0.27365203     0.14500
H1540       H  0.61583573  0.68829268  0.21624974     0.14500
C1541       C  0.60606510  0.68542485  0.27702885     0.36100
C1542       C  0.74808630  0.69325070  0.21191656     0.36000
N1543       N  0.57655546  0.68289172  0.28903652    -0.44200
N1544       N  0.77724231  0.69486443  0.19913297    -0.44200
C1545       C  0.61918993  0.76095858  0.52661748    -0.00600
C1546       C  0.60908465  0.77847790  0.49929570    -0.12500
C1547       C  0.60987773  0.76387763  0.46929147     0.01600
C1548       C  0.61991759  0.73084856  0.46621768    -0.00700
C1549       C  0.62734377  0.71270310  0.49355060    -0.12500
C1550       C  0.62749971  0.72734146  0.52347095     0.01500
H1551       H  0.60236761  0.80418911  0.50103133     0.14500
H1552       H  0.63502007  0.68719878  0.49138914     0.14500
C1553       C  0.63767649  0.70725316  0.55007980     0.36100
C1554       C  0.60063297  0.78335737  0.44205454     0.36000
N1555       N  0.64606275  0.69105942  0.57126430    -0.44200
N1556       N  0.59322354  0.79894723  0.42020246    -0.44200
C1557       C  0.32119363  0.80493495  0.71082125    -0.00600
C1558       C  0.30611803  0.83150750  0.72735047    -0.12500
C1559       C  0.30755243  0.83302038  0.76034561     0.01600
C1560       C  0.32246716  0.80665703  0.77759282    -0.00700
C1561       C  0.33762212  0.77994091  0.76108664    -0.12500
C1562       C  0.33725109  0.77890994  0.72795701     0.01500
H1563       H  0.29462797  0.85183670  0.71426978     0.14500
H1564       H  0.34951275  0.75967397  0.77413602     0.14500
C1565       C  0.35232636  0.75044743  0.71220173     0.36100
C1566       C  0.29740671  0.86332149  0.77540509     0.36000
N1567       N  0.36435164  0.72764189  0.69953221    -0.44200
N1568       N  0.29035457  0.88834700  0.78655186    -0.44200
C1569       C  0.45937754  0.83465824  0.62582421    -0.00600
C1570       C  0.47910923  0.86045494  0.61128622    -0.12500
C1571       C  0.51902075  0.86131320  0.61065726     0.01600
C1572       C  0.53996523  0.83579074  0.62471517    -0.00700
C1573       C  0.52010556  0.81227745  0.64247309    -0.12500
C1574       C  0.48030036  0.81163669  0.64335244     0.01500
H1575       H  0.46346653  0.87876921  0.59835750     0.14500
H1576       H  0.53568464  0.79329956  0.65453674     0.14500
C1577       C  0.46179527  0.78651133  0.66177116     0.36100
C1578       C  0.53726814  0.88735960  0.59335043     0.36000
N1579       N  0.44699496  0.76642718  0.67659004    -0.44200
N1580       N  0.55181971  0.90830597  0.57952111    -0.44200
C1581       C  0.31848970  0.68790496  0.27939608    -0.00600
C1582       C  0.28322162  0.69162715  0.26442905    -0.12500
C1583       C  0.28060585  0.69251076  0.23146671     0.01600
C1584       C  0.31393765  0.68986117  0.21276542    -0.00700
C1585       C  0.34900864  0.68509725  0.22773120    -0.12500
C1586       C  0.35153368  0.68369956  0.26063316     0.01500
H1587       H  0.25757899  0.69463963  0.27853893     0.14500
H1588       H  0.37465000  0.68200202  0.21361588     0.14500
C1589       C  0.38814261  0.67643563  0.27417714     0.36100
C1590       C  0.24352623  0.69737904  0.21777530     0.36000
N1591       N  0.41753611  0.67019838  0.28468699    -0.44200
N1592       N  0.21372979  0.70120767  0.20693082    -0.44200
C1593       C  0.45904917  0.66550553  0.36567597    -0.00600
C1594       C  0.47835584  0.63969778  0.38025045    -0.12500
C1595       C  0.51826866  0.63899938  0.38130971     0.01600
C1596       C  0.53975857  0.66430881  0.36705142    -0.00700
C1597       C  0.52041454  0.68864484  0.35041995    -0.12500
C1598       C  0.48069379  0.68945602  0.34948856     0.01500
H1599       H  0.46230425  0.62123014  0.39289153     0.14500
H1600       H  0.53636116  0.70813580  0.33923628     0.14500
C1601       C  0.46323954  0.71602749  0.33264879     0.36100
C1602       C  0.53591034  0.61375407  0.39981671     0.36000
N1603       N  0.44941710  0.73738954  0.31916651    -0.44200
N1604       N  0.54998203  0.59364689  0.41484396    -0.44200
C1605       C  0.38177848  0.76610852  0.52391037    -0.00600
C1606       C  0.37872736  0.78464018  0.49618171    -0.12500
C1607       C  0.37790289  0.76974628  0.46639631     0.01600
C1608       C  0.38056657  0.73546914  0.46390066    -0.00700
C1609       C  0.38678722  0.71726499  0.49156973    -0.12500
C1610       C  0.38715937  0.73219052  0.52137467     0.01500
H1611       H  0.37501255  0.81082877  0.49781617     0.14500
H1612       H  0.38946703  0.69097919  0.49019706     0.14500
C1613       C  0.39281430  0.71211431  0.54891914     0.36100
C1614       C  0.37370588  0.79034663  0.43903362     0.36000
N1615       N  0.39744038  0.69605346  0.57099788    -0.44200
N1616       N  0.37039647  0.80690316  0.41713121    -0.44200
C1617       C  0.18021454  0.56114301  0.71296448    -0.00600
C1618       C  0.14638267  0.56855315  0.72922970    -0.12500
C1619       C  0.14489650  0.56871304  0.76226702     0.01600
C1620       C  0.17760104  0.56053915  0.77977261    -0.00700
C1621       C  0.21176076  0.55410571  0.76358055    -0.12500
C1622       C  0.21338525  0.55438997  0.73048234     0.01500
H1623       H  0.12097417  0.57464556  0.71602783     0.14500
H1624       H  0.23713350  0.54802994  0.77682612     0.14500
C1625       C  0.24899660  0.54624606  0.71523925     0.36100
C1626       C  0.10994589  0.57881958  0.77750187     0.36000
N1627       N  0.27753135  0.53974569  0.70300335    -0.44200
N1628       N  0.08473052  0.08951862  0.78943392    -0.44200
C1629       C  0.25348604  0.98567177  0.61567842    -0.00600
C1630       C  0.25776442  0.96831239  0.64390426    -0.12500
C1631       C  0.28041248  0.94034865  0.64518566     0.01600
C1632       C  0.29879302  0.92868004  0.61757079    -0.00700
C1633       C  0.29629085  0.94734634  0.58972055    -0.12500
C1634       C  0.27390656  0.97560992  0.58860907     0.01500
H1635       H  0.24298371  0.97650679  0.66504633     0.14500
H1636       H  0.30969603  0.93871834  0.56813970     0.14500
C1637       C  0.27526234  0.49641260  0.56183787     0.36100
C1638       C  0.28417019  0.92434715  0.67528760     0.36000
N1639       N  0.27401793  0.51080735  0.53838518    -0.44200
N1640       N  0.28707663  0.91218990  0.69977659    -0.44200
C1641       C  0.20084547  0.67930445  0.61916483    -0.00600
C1642       C  0.19891670  0.70015503  0.59279174    -0.12500
C1643       C  0.22136639  0.72850075  0.59096966     0.01600
C1644       C  0.24683120  0.73606879  0.61559603    -0.00700
C1645       C  0.24656711  0.71678161  0.64289326    -0.12500
C1646       C  0.22341430  0.68908449  0.64519616     0.01500
H1647       H  0.18169851  0.69331013  0.57260498     0.14500
H1648       H  0.26492589  0.72326264  0.66251264     0.14500
C1649       C  0.22412832  0.67090812  0.67439699     0.36100
C1650       C  0.21968411  0.74812918  0.56274114     0.36000
N1651       N  0.22462968  0.65637599  0.69780085    -0.44200
N1652       N  0.21830260  0.76395911  0.54018030    -0.44200
C1653       C  0.23498653  0.61062707  0.52363625    -0.00600
C1654       C  0.25209032  0.64151767  0.52485488    -0.12500
C1655       C  0.26692031  0.65580836  0.49746655     0.01600
C1656       C  0.26487309  0.63887670  0.46850215    -0.00700
C1657       C  0.24777530  0.60802371  0.46728986    -0.12500
C1658       C  0.23287144  0.59377543  0.49462623     0.01500
H1659       H  0.25253818  0.65497055  0.54694934     0.14500
H1660       H  0.24720123  0.59461777  0.44516841     0.14500
C1661       C  0.21688673  0.56139334  0.49260374     0.36100
C1662       C  0.28231231  0.68842715  0.49927155     0.36000
N1663       N  0.20442868  0.53532522  0.49102664    -0.44200
N1664       N  0.29412578  0.71473112  0.50065164    -0.44200
C1665       C  0.17678072  0.94386545  0.21135006    -0.00600
C1666       C  0.14999512  0.96226444  0.22847595    -0.12500
C1667       C  0.14982387  0.96292220  0.26159004     0.01600
C1668       C  0.17645765  0.94416086  0.27870186    -0.00700
C1669       C  0.20388978  0.92640401  0.26160825    -0.12500
C1670       C  0.20444645  0.92617991  0.22840200     0.01500
H1671       H  0.12917067  0.97670127  0.21590906     0.14500
H1672       H  0.22486171  0.91220302  0.27423935     0.14500
C1673       C  0.23334112  0.90698014  0.21274189     0.36100
C1674       C  0.12276924  0.98415232  0.27707981     0.36000
N1675       N  0.25667944  0.89168499  0.20031496    -0.44200
N1676       N  0.10122348  0.00135513  0.28938432    -0.44200
C1677       C  0.23431137  0.88561802  0.46637726    -0.00600
C1678       C  0.22190029  0.89632991  0.49629071    -0.12500
C1679       C  0.23738413  0.88378238  0.52399907     0.01600
C1680       C  0.26625767  0.86001720  0.52214878    -0.00700
C1681       C  0.27866581  0.84919833  0.49222248    -0.12500
C1682       C  0.26284981  0.86155599  0.46445565     0.01500
H1683       H  0.19978735  0.91464470  0.49807793     0.14500
H1684       H  0.30078766  0.83089209  0.49050455     0.14500
C1685       C  0.27529926  0.84805599  0.43456609     0.36100
C1686       C  0.22386307  0.89668864  0.55381427     0.36000
N1687       N  0.28521241  0.83718904  0.41062853    -0.44200
N1688       N  0.21289159  0.90701870  0.57765836    -0.44200
C1689       C  0.12024967  0.98234544  0.46765742    -0.00600
C1690       C  0.12058828  0.96381700  0.49559336    -0.12500
C1691       C  0.12092518  0.97875115  0.52547597     0.01600
C1692       C  0.12090125  0.51194854  0.52793452    -0.00700
C1693       C  0.11307874  0.52947614  0.50013747    -0.12500
C1694       C  0.11334707  0.51429122  0.47039643     0.01500
H1695       H  0.12235937  0.93744656  0.49413720     0.14500
H1696       H  0.10841313  0.55557969  0.50134630     0.14500
C1697       C  0.10584464  0.53380737  0.44280951     0.36100
C1698       C  0.12218305  0.95809135  0.55302093     0.36000
N1699       N  0.09978561  0.54937613  0.42065074    -0.44200
N1700       N  0.12311597  0.94145040  0.57504212    -0.44200
C1701       C  0.24637075  0.76301711  0.37384193    -0.00600
C1702       C  0.24759195  0.78293956  0.34693609    -0.12500
C1703       C  0.22464290  0.81065787  0.34452562     0.01600
C1704       C  0.20042952  0.81972441  0.36996365    -0.00700
C1705       C  0.19735591  0.79842749  0.39597878    -0.12500
C1706       C  0.21982609  0.77024940  0.39801025     0.01500
H1707       H  0.26688203  0.77691468  0.32766119     0.14500
H1708       H  0.17908460  0.80476068  0.41580572     0.14500
C1709       C  0.21696306  0.75047247  0.42610664     0.36100
C1710       C  0.22713655  0.82944950  0.31575846     0.36000
N1711       N  0.21469030  0.73454665  0.44857838    -0.44200
N1712       N  0.22910505  0.84436481  0.29262460    -0.44200
C1713       C  0.25048557  0.51343088  0.37459533    -0.00600
C1714       C  0.25318141  0.53190519  0.34681365    -0.12500
C1715       C  0.27628354  0.55977899  0.34530079     0.01600
C1716       C  0.29652804  0.57026657  0.37237135    -0.00700
C1717       C  0.29550267  0.55052640  0.39956806    -0.12500
C1718       C  0.27283877  0.52230930  0.40081720     0.01500
H1719       H  0.23691996  0.52462236  0.32624294     0.14500
H1720       H  0.31041152  0.55822665  0.42068128     0.14500
C1721       C  0.27072079  0.50424250  0.43002199     0.36100
C1722       C  0.27830821  0.57728571  0.31573448     0.36000
N1723       N  0.26882312  0.48967031  0.45336389    -0.44200
N1724       N  0.28005839  0.59127308  0.29204224    -0.44200
C1725       C  0.81825986  0.55779534  0.77815589    -0.00600
C1726       C  0.78411524  0.56335859  0.76181521    -0.12500
C1727       C  0.78266848  0.56222810  0.72862498     0.01600
C1728       C  0.81621480  0.55614070  0.71083932    -0.00700
C1729       C  0.85006730  0.55005250  0.72726282    -0.12500
C1730       C  0.85142582  0.55053982  0.76024654     0.01500
H1731       H  0.75817437  0.56819658  0.77499542     0.14500
H1732       H  0.87610043  0.54494383  0.71428281     0.14500
C1733       C  0.88766859  0.54343637  0.77456892     0.36100
C1734       C  0.74614154  0.56658353  0.71380778     0.36000
N1735       N  0.91675808  0.53751511  0.78581620    -0.44200
N1736       N  0.71677659  0.56986174  0.70201849    -0.44200
C1737       C  0.95986443  0.58335126  0.62919180    -0.00600
C1738       C  0.97944677  0.61106160  0.61820002    -0.12500
C1739       C  0.01940916  0.61209847  0.61743155     0.01600
C1740       C  0.04057750  0.58472151  0.62744018    -0.00700
C1741       C  0.02090107  0.55892477  0.64208395    -0.12500
C1742       C  0.98113436  0.55809546  0.64328084     0.01500
H1743       H  0.96363256  0.63116918  0.60824748     0.14500
H1744       H  0.03656303  0.53838719  0.65137253     0.14500
C1745       C  0.96316316  0.53037688  0.65824162     0.36100
C1746       C  0.03748083  0.64090030  0.60475293     0.36000
N1747       N  0.94886294  0.50814492  0.67023780    -0.44200
N1748       N  0.05184606  0.66413397  0.59477146    -0.44200
C1749       C  0.77134263  0.61404171  0.52143985    -0.00600
C1750       C  0.73273540  0.60702989  0.51758574    -0.12500
C1751       C  0.71326435  0.61778226  0.49098275     0.01600
C1752       C  0.73270312  0.63597731  0.46734601    -0.00700
C1753       C  0.77135644  0.64300822  0.47118631    -0.12500
C1754       C  0.79067141  0.63269181  0.49813408     0.01500
H1755       H  0.71771846  0.59279293  0.53535194     0.14500
H1756       H  0.78627422  0.65737814  0.45348234     0.14500
C1757       C  0.82963004  0.64325238  0.50194477     0.36100
C1758       C  0.67355161  0.60896648  0.48853148     0.36000
N1759       N  0.86074123  0.65194675  0.50506245    -0.44200
N1760       N  0.64169600  0.60198000  0.48690484    -0.44200
C1761       C  0.79657032  0.67798083  0.62089391    -0.00600
C1762       C  0.79965726  0.69929294  0.59491960    -0.12500
C1763       C  0.77690354  0.72726300  0.59279973     0.01600
C1764       C  0.75057613  0.73454504  0.61711292    -0.00700
C1765       C  0.74901122  0.71440281  0.64382996    -0.12500
C1766       C  0.77167253  0.68653199  0.64605348     0.01500
H1767       H  0.81797309  0.69299360  0.57510709     0.14500
H1768       H  0.72947970  0.72024193  0.66298433     0.14500
C1769       C  0.76770286  0.66675088  0.67409934     0.36100
C1770       C  0.77884585  0.74649664  0.56429061     0.36000
N1771       N  0.76433501  0.65085139  0.69650393    -0.44200
N1772       N  0.78017969  0.76184427  0.54139576    -0.44200
C1773       C  0.70203578  0.92759053  0.61532014    -0.00600
C1774       C  0.70311597  0.94702855  0.58787325    -0.12500
C1775       C  0.72578750  0.97528167  0.58636691     0.01600
C1776       C  0.74839385  0.98419692  0.61245207    -0.00700
C1777       C  0.74524616  0.96620931  0.64049920    -0.12500
C1778       C  0.72194568  0.93854671  0.64234583     0.01500
H1779       H  0.68812265  0.93916601  0.56688893     0.14500
H1780       H  0.76133326  0.97371106  0.66106526     0.14500
C1781       C  0.71944894  0.92173795  0.67225587     0.36100
C1782       C  0.72601664  0.49446958  0.55690733     0.36000
N1783       N  0.71732747  0.90831862  0.69623332    -0.44200
N1784       N  0.72653304  0.50898494  0.53348710    -0.44200
C1785       C  0.81452291  0.94321681  0.21210305    -0.00600
C1786       C  0.84814009  0.93399946  0.22741582    -0.12500
C1787       C  0.85011722  0.93289339  0.26042579     0.01600
C1788       C  0.81796651  0.94125323  0.27887367    -0.00700
C1789       C  0.78427431  0.95041679  0.26359552    -0.12500
C1790       C  0.78238855  0.95173141  0.23051613     0.01500
H1791       H  0.87291287  0.92719128  0.21348966     0.14500
H1792       H  0.75964129  0.95745893  0.27757399     0.14500
C1793       C  0.74797587  0.96370719  0.21620294     0.36100
C1794       C  0.88502588  0.92186866  0.27465382     0.36000
N1795       N  0.72052283  0.97355000  0.20472720    -0.44200
N1796       N  0.91294240  0.91289858  0.28603106    -0.44200
C1797       C  0.95735738  0.91685381  0.36646832    -0.00600
C1798       C  0.97618250  0.89033341  0.38026897    -0.12500
C1799       C  0.01609146  0.88887047  0.38100734     0.01600
C1800       C  0.03806708  0.91453819  0.36789647    -0.00700
C1801       C  0.01916855  0.93921425  0.35129405    -0.12500
C1802       C  0.97941011  0.94047858  0.35023664     0.01500
H1803       H  0.95978884  0.87162233  0.39228763     0.14500
H1804       H  0.03552540  0.95846735  0.34006271     0.14500
C1805       C  0.96225477  0.96682786  0.33286453     0.36100
C1806       C  0.03329003  0.86178754  0.39718406     0.36000
N1807       N  0.94855006  0.98790581  0.31888826    -0.44200
N1808       N  0.04691726  0.83994465  0.41006700    -0.44200
C1809       C  0.87822835  0.98875936  0.46460353    -0.00600
C1810       C  0.88786459  0.97055571  0.49160883    -0.12500
C1811       C  0.88930620  0.98490779  0.52166027     0.01600
C1812       C  0.88272911  0.51843715  0.52454522    -0.00700
C1813       C  0.87819230  0.53698748  0.49694618    -0.12500
C1814       C  0.87652639  0.52212749  0.46705930     0.01500
H1815       H  0.89238236  0.94447777  0.48965348     0.14500
H1816       H  0.87370879  0.56306205  0.49884644     0.14500
C1817       C  0.86975711  0.54264987  0.44001752     0.36100
C1818       C  0.89721852  0.96446008  0.54853211     0.36000
N1819       N  0.86418137  0.55923761  0.41846781    -0.44200
N1820       N  0.90340605  0.94805204  0.57008688    -0.44200
C1821       C  0.76232932  0.89028977  0.46791133    -0.00600
C1822       C  0.74331968  0.86036822  0.46494557    -0.12500
C1823       C  0.72913949  0.84431845  0.49160833     0.01600
C1824       C  0.73372536  0.85849397  0.52176339    -0.00700
C1825       C  0.75261260  0.88846950  0.52468837    -0.12500
C1826       C  0.76678887  0.90449777  0.49803886     0.01500
H1827       H  0.74096486  0.84886469  0.44192366     0.14500
H1828       H  0.75499207  0.89999717  0.54770012     0.14500
C1829       C  0.78428693  0.93609402  0.50205341     0.36100
C1830       C  0.71174014  0.81268544  0.48754785     0.36000
N1831       N  0.79789531  0.96156254  0.50535476    -0.44200
N1832       N  0.69835238  0.78715712  0.48406295    -0.44200
C1833       C  0.74703069  0.51256821  0.36995998    -0.00600
C1834       C  0.71694309  0.51631187  0.39163303    -0.12500
C1835       C  0.69397780  0.54429277  0.39136021     0.01600
C1836       C  0.70118416  0.56939537  0.36907767    -0.00700
C1837       C  0.72868965  0.56373936  0.34541056    -0.12500
C1838       C  0.75139578  0.53585087  0.34561132     0.01500
H1839       H  0.71341947  0.00128027  0.41388045     0.14500
H1840       H  0.73397734  0.58199646  0.32739161     0.14500
C1841       C  0.77904690  0.53193824  0.32044725     0.36100
C1842       C  0.66416615  0.54673431  0.41484923     0.36000
N1843       N  0.80114225  0.52879311  0.30027219    -0.44200
N1844       N  0.64010719  0.54834282  0.43358328    -0.44200
C1845       C  0.75273743  0.76311188  0.37404255    -0.00600
C1846       C  0.77519739  0.77084400  0.40031694    -0.12500
C1847       C  0.79695920  0.79966310  0.40112715     0.01600
C1848       C  0.79675229  0.82134148  0.37495359    -0.00700
C1849       C  0.77666719  0.81191234  0.34774560    -0.12500
C1850       C  0.75492104  0.78325108  0.34708510     0.01500
H1851       H  0.77415983  0.75519105  0.42096901     0.14500
H1852       H  0.77663000  0.82769729  0.32719571     0.14500
C1853       C  0.73515106  0.77495417  0.31830820     0.36100
C1854       C  0.81693291  0.80713826  0.43000468     0.36000
N1855       N  0.71948281  0.76822159  0.29519813    -0.44200
N1856       N  0.83282339  0.81306945  0.45321944    -0.44200
loop_ 
_geom_bond_atom_site_label_1 
_geom_bond_atom_site_label_2 
_geom_bond_distance 
_geom_bond_site_symmetry_2 
_ccdc_geom_bond_type 
O1           C16   1.259       .  A
O1           Al9   1.889       .  S
C2           O12   1.265       .  A
C2            O3   1.267       .  A
C2          C881   1.492       .  S
O3           Al5   1.927       .  S
O4            C6   1.258       .  A
O4           Al5   1.874       .  S
Al5          O13   1.906       .  S
Al5          O15   1.930       .  S
Al5          O14   1.779       .  S
C6           O19   1.267       .  A
C6          C893   1.464       .  S
O7           C17   1.261       .  A
O7           Al9   1.908       .  S
O8           C21   1.264       .  A
O8          Al18   1.893       .  S
Al9          O22   1.925       .  S
Al9          O19   1.927       .  S
Al9          O14   1.775       .  S
O10          C17   1.261       .  A
O10         Al18   1.911       .  S
O11          C20   1.265       .  A
O11         Al18   1.915       .  S
O12         Al18   1.908       .  S
O13          C20   1.264       .  A
O14         Al18   1.771       .  S
O15          C16   1.263       .  A
C16         C920   1.493       .  S
C17        C1833   1.487       .  S
C20         C869   1.487       .  S
C21          O22   1.267       .  A
C21         C860   1.477       .  S
O23          C38   1.255       .  A
O23         Al31   1.875       .  S
C24          O34   1.265       .  A
C24          O25   1.270       .  A
C24         C884   1.482       .  S
O25         Al27   1.935       .  S
O26          C28   1.254       .  A
O26         Al27   1.866       .  S
Al27         O35   1.907       .  S
Al27         O37   1.943       .  S
Al27         O36   1.781       .  S
C28          O41   1.270       .  A
C28         C821   1.487       .  S
O29          C39   1.257       .  A
O29         Al31   1.904       .  S
O30          C43   1.266       .  A
O30         Al40   1.885       .  S
Al31         O44   1.947       .  S
Al31         O41   1.941       .  S
Al31         O36   1.770       .  S
O32          C39   1.262       .  A
O32         Al40   1.926       .  S
O33          C42   1.265       .  A
O33         Al40   1.924       .  S
O34         Al40   1.894       .  S
O35          C42   1.263       .  A
O36         Al40   1.776       .  S
O37          C38   1.267       .  A
C38         C833   1.497       .  S
C39        C1776   1.482   1_545  S
C42         C809   1.489       .  S
C43          O44   1.272       .  A
C43         C800   1.487       .  S
O45          C60   1.273       .  A
O45         Al53   1.942       .  S
C46          O56   1.268       .  A
C46          O47   1.266       .  A
C46         C761   1.485       .  S
O47         Al49   1.902       .  S
O48          C50   1.261       .  A
O48         Al49   1.926       .  S
Al49         O57   1.917       .  S
Al49         O59   1.886       .  S
Al49         O58   1.776       .  S
C50          O63   1.257       .  A
C50        C1713   1.481       .  S
O51          C61   1.269       .  A
O51         Al53   1.940       .  S
O52          C65   1.264       .  A
O52         Al62   1.931       .  S
Al53         O66   1.883       .  S
Al53         O63   1.901       .  S
Al53         O58   1.773       .  S
O54          C61   1.256       .  A
O54         Al62   1.861       .  S
O55          C64   1.262       .  A
O55         Al62   1.903       .  S
O56         Al62   1.930       .  S
O57          C64   1.266       .  A
O58         Al62   1.781       .  S
O59          C60   1.263       .  A
C60         C740   1.492       .  S
C61         C749   1.475       .  S
C64         C872   1.487       .  S
C65          O66   1.256       .  A
C65         C776   1.494       .  S
O67          C82   1.269       .  A
O67         Al75   1.935       .  S
C68          O78   1.269       .  A
C68          O69   1.264       .  A
C68         C764   1.491       .  S
O69         Al71   1.901       .  S
O70          C72   1.263       .  A
O70         Al71   1.926       .  S
Al71         O79   1.930       .  S
Al71         O81   1.884       .  S
Al71         O80   1.775       .  S
C72          O85   1.259       .  A
C72        C1629   1.480   1_545  S
O73          C83   1.266       .  A
O73         Al75   1.931       .  S
O74          C87   1.267       .  A
O74         Al84   1.942       .  S
Al75         O88   1.887       .  S
Al75         O85   1.904       .  S
Al75         O80   1.774       .  S
O76          C83   1.256       .  A
O76         Al84   1.870       .  S
O77          C86   1.263       .  A
O77         Al84   1.903       .  S
O78         Al84   1.935       .  S
O79          C86   1.267       .  A
O80         Al84   1.775       .  S
O81          C82   1.263       .  A
C82         C689   1.478       .  S
C83         C725   1.464       .  S
C86         C812   1.492       .  S
C87          O88   1.258       .  A
C87         C713   1.496       .  S
O89         C104   1.257       .  A
O89         Al97   1.882       .  S
C90         O100   1.266       .  A
C90          O91   1.267       .  A
C90         C680   1.490       .  S
O91         Al93   1.926       .  S
O92          C94   1.257       .  A
O92         Al93   1.877       .  S
Al93        O101   1.910       .  S
Al93        O103   1.944       .  S
Al93        O102   1.778       .  S
C94         O107   1.265       .  A
C94         C728   1.463       .  S
O95         C105   1.259       .  A
O95         Al97   1.902       .  S
O96         C109   1.264       .  A
O96        Al106   1.888       .  S
Al97        O110   1.924       .  S
Al97        O107   1.923       .  S
Al97        O102   1.773       .  S
O98         C105   1.262       .  A
O98        Al106   1.918       .  S
O99         C108   1.264       .  A
O99        Al106   1.915       .  S
O100       Al106   1.904       .  S
O101        C108   1.266       .  A
O102       Al106   1.773       .  S
O103        C104   1.266       .  A
C104        C788   1.492       .  S
C105        C773   1.485       .  S
C108        C665   1.486       .  S
C109        O110   1.268       .  A
C109        C653   1.477       .  S
O111        C126   1.256       .  A
O111       Al119   1.888       .  S
C112        O122   1.264       .  A
C112        O113   1.267       .  A
C112        C677   1.481       .  S
O113       Al115   1.928       .  S
O114        C116   1.256       .  A
O114       Al115   1.867       .  S
Al115       O123   1.908       .  S
Al115       O125   1.934       .  S
Al115       O124   1.786       .  S
C116        O129   1.271       .  A
C116        C752   1.476       .  S
O117        C127   1.257       .  A
O117       Al119   1.910       .  S
O118        C131   1.262       .  A
O118       Al128   1.882       .  S
Al119       O132   1.945       .  S
Al119       O129   1.941       .  S
Al119       O124   1.775       .  S
O120        C127   1.260       .  A
O120       Al128   1.921       .  S
O121        C130   1.266       .  A
O121       Al128   1.923       .  S
O122       Al128   1.896       .  S
O123        C130   1.265       .  A
O124       Al128   1.781       .  S
O125        C126   1.264       .  A
C126        C704   1.496       .  S
C127        C716   1.488       .  S
C130        C641   1.487       .  S
C131        O132   1.273       .  A
C131        C629   1.475       .  S
O133        C148   1.273       .  A
O133       Al141   1.949       .  S
C134        O144   1.265       .  A
C134        O135   1.266       .  A
C134        C620   1.477       .  S
O135       Al137   1.907       .  S
O136        C138   1.263       .  A
O136       Al137   1.926       .  S
Al137       O145   1.933       .  S
Al137       O147   1.885       .  S
Al137       O146   1.775       .  S
C138        O151   1.258       .  A
C138        C917   1.483       .  S
O139        C149   1.272       .  A
O139       Al141   1.951       .  S
O140        C153   1.261       .  A
O140       Al150   1.924       .  S
Al141       O154   1.884       .  S
Al141       O151   1.901       .  S
Al141       O146   1.772       .  S
O142        C149   1.255       .  A
O142       Al150   1.865       .  S
O143        C152   1.261       .  A
O143       Al150   1.892       .  S
O144       Al150   1.918       .  S
O145        C152   1.268       .  A
O146       Al150   1.775       .  S
O147        C148   1.264       .  A
C148        C605   1.486       .  S
C149        C824   1.486       .  S
C152        C668   1.484       .  S
C153        O154   1.258       .  A
C153        C908   1.491       .  S
O155        C170   1.268       .  A
O155       Al163   1.928       .  S
C156        O166   1.265       .  A
C156        O157   1.264       .  A
C156        C617   1.486       .  S
O157       Al159   1.898       .  S
O158        C160   1.263       .  A
O158       Al159   1.918       .  S
Al159       O167   1.932       .  S
Al159       O169   1.878       .  S
Al159       O168   1.771       .  S
C160        O173   1.259       .  A
C160        C836   1.493       .  S
O161        C171   1.267       .  A
O161       Al163   1.927       .  S
O162        C175   1.263       .  A
O162       Al172   1.926       .  S
Al163       O176   1.886       .  S
Al163       O173   1.906       .  S
Al163       O168   1.775       .  S
O164        C171   1.257       .  A
O164       Al172   1.874       .  S
O165        C174   1.263       .  A
O165       Al172   1.902       .  S
O166       Al172   1.919       .  S
O167        C174   1.268       .  A
O168       Al172   1.779       .  S
O169        C170   1.264       .  A
C170        C593   1.487       .  S
C171        C896   1.463       .  S
C174        C644   1.491       .  S
C175        O176   1.258       .  A
C175        C845   1.488       .  S
O177        C192   1.270       .  A
O177       Al185   1.935       .  S
C178        O188   1.269       .  A
C178        O179   1.265       .  A
C178        C548   1.491       .  S
O179       Al181   1.903       .  S
O180        C182   1.263       .  A
O180       Al181   1.927       .  S
Al181       O189   1.923       .  S
Al181       O191   1.883       .  S
Al181       O190   1.772       .  S
C182        O195   1.258       .  A
C182       C1497   1.485       .  S
O183        C193   1.267       .  A
O183       Al185   1.932       .  S
O184        C197   1.267       .  A
O184       Al194   1.946       .  S
Al185       O198   1.883       .  S
Al185       O195   1.901       .  S
Al185       O190   1.773       .  S
O186        C193   1.255       .  A
O186       Al194   1.861       .  S
O187        C196   1.264       .  A
O187       Al194   1.905       .  S
O188       Al194   1.936       .  S
O189        C196   1.267       .  A
O190       Al194   1.777       .  S
O191        C192   1.263       .  A
C192        C857   1.478       .  S
C193        C557   1.457       .  S
C196        C533   1.488       .  S
C197        O198   1.257       .  A
C197        C581   1.499       .  S
O199        C214   1.272       .  A
O199       Al207   1.948       .  S
C200        O210   1.267       .  A
C200        O201   1.265       .  A
C200        C545   1.488       .  S
O201       Al203   1.901       .  S
O202        C204   1.261       .  A
O202       Al203   1.918       .  S
Al203       O211   1.928       .  S
Al203       O213   1.879       .  S
Al203       O212   1.774       .  S
C204        O217   1.258       .  A
C204       C1449   1.483   1_545  S
O205        C215   1.271       .  A
O205       Al207   1.939       .  S
O206        C219   1.262       .  A
O206       Al216   1.925       .  S
Al207       O220   1.891       .  S
Al207       O217   1.906       .  S
Al207       O212   1.776       .  S
O208        C215   1.256       .  A
O208       Al216   1.863       .  S
O209        C218   1.261       .  A
O209       Al216   1.899       .  S
O210       Al216   1.930       .  S
O211        C218   1.268       .  A
O212       Al216   1.780       .  S
O213        C214   1.263       .  A
C214        C797   1.487       .  S
C215        C500   1.480       .  S
C218        C485   1.492       .  S
C219        O220   1.259       .  A
C219        C509   1.494       .  S
O221        C236   1.256       .  A
O221       Al229   1.875       .  S
C222        O232   1.265       .  A
C222        O223   1.268       .  A
C222        C449   1.483       .  S
O223       Al225   1.926       .  S
O224        C226   1.259       .  A
O224       Al225   1.882       .  S
Al225       O233   1.901       .  S
Al225       O235   1.935       .  S
Al225       O234   1.780       .  S
C226        O239   1.269       .  A
C226        C440   1.487       .  S
O227        C237   1.259       .  A
O227       Al229   1.901       .  S
O228        C241   1.265       .  A
O228       Al238   1.888       .  S
Al229       O242   1.937       .  S
Al229       O239   1.941       .  S
Al229       O234   1.768       .  S
O230        C237   1.262       .  A
O230       Al238   1.922       .  S
O231        C240   1.266       .  A
O231       Al238   1.925       .  S
O232       Al238   1.900       .  S
O233        C240   1.263       .  A
O234       Al238   1.775       .  S
O235        C236   1.264       .  A
C236        C461   1.491       .  S
C237       C1401   1.479       .  S
C240        C536   1.487       .  S
C241        O242   1.270       .  A
C241        C737   1.490       .  S
O243        C258   1.257       .  A
O243       Al251   1.876       .  S
C244        O254   1.266       .  A
C244        O245   1.270       .  A
C244        C452   1.486       .  S
O245       Al247   1.936       .  S
O246        C248   1.257       .  A
O246       Al247   1.861       .  S
Al247       O255   1.920       .  S
Al247       O257   1.937       .  S
Al247       O256   1.782       .  S
C248        O261   1.266       .  A
C248        C428   1.470       .  S
O249        C259   1.259       .  A
O249       Al251   1.914       .  S
O250        C263   1.265       .  A
O250       Al260   1.887       .  S
Al251       O264   1.928       .  S
Al251       O261   1.923       .  S
Al251       O256   1.778       .  S
O252        C259   1.259       .  A
O252       Al260   1.893       .  S
O253        C262   1.259       .  A
O253       Al260   1.900       .  S
O254       Al260   1.895       .  S
O255        C262   1.265       .  A
O256       Al260   1.769       .  S
O257        C258   1.264       .  A
C258        C416   1.496       .  S
C259       C1329   1.491   1_545  S
C262        C488   1.490       .  S
C263        O264   1.269       .  A
C263        C692   1.477       .  S
O265        C280   1.269       .  A
O265       Al273   1.925       .  S
C266        O276   1.267       .  A
C266        O267   1.266       .  A
C266        C389   1.488       .  S
O267       Al269   1.904       .  S
O268        C270   1.260       .  A
O268       Al269   1.911       .  S
Al269       O277   1.919       .  S
Al269       O279   1.883       .  S
Al269       O278   1.775       .  S
C270        O283   1.257       .  A
C270        C464   1.485       .  S
O271        C281   1.266       .  A
O271       Al273   1.920       .  S
O272        C285   1.262       .  A
O272       Al282   1.923       .  S
Al273       O286   1.886       .  S
Al273       O283   1.902       .  S
Al273       O278   1.776       .  S
O274        C281   1.257       .  A
O274       Al282   1.864       .  S
O275        C284   1.263       .  A
O275       Al282   1.902       .  S
O276       Al282   1.927       .  S
O277        C284   1.264       .  A
O278       Al282   1.778       .  S
O279        C280   1.264       .  A
C280        C656   1.478       .  S
C281        C425   1.470       .  S
C284        C380   1.483       .  S
C285        O286   1.257       .  A
C285        C476   1.488       .  S
O287        C302   1.270       .  A
O287       Al295   1.934       .  S
C288        O298   1.267       .  A
C288        O289   1.264       .  A
C288        C392   1.489       .  S
O289       Al291   1.901       .  S
O290        C292   1.258       .  A
O290       Al291   1.900       .  S
Al291       O299   1.910       .  S
Al291       O301   1.898       .  S
Al291       O300   1.778       .  S
C292        O305   1.260       .  A
C292        C413   1.492       .  S
O293        C303   1.270       .  A
O293       Al295   1.949       .  S
O294        C307   1.265       .  A
O294       Al304   1.940       .  S
Al295       O308   1.875       .  S
Al295       O305   1.913       .  S
Al295       O300   1.775       .  S
O296        C303   1.258       .  A
O296       Al304   1.871       .  S
O297        C306   1.265       .  A
O297       Al304   1.912       .  S
O298       Al304   1.930       .  S
O299        C306   1.263       .  A
O300       Al304   1.786       .  S
O301        C302   1.264       .  A
C302        C632   1.476       .  S
C303        C437   1.486       .  S
C306        C365   1.485       .  S
C307        O308   1.253       .  A
C307        C404   1.496       .  S
O309        C324   1.257       .  A
O309       Al317   1.878       .  S
C310        O320   1.266       .  A
C310        O311   1.268       .  A
C310        C353   1.480       .  S
O311       Al313   1.927       .  S
O312        C314   1.253       .  A
O312       Al313   1.862       .  S
Al313       O321   1.898       .  S
Al313       O323   1.930       .  S
Al313       O322   1.780       .  S
C314        O327   1.268       .  A
C314        C497   1.481       .  S
O315        C325   1.259       .  A
O315       Al317   1.908       .  S
O316        C329   1.268       .  A
O316       Al326   1.900       .  S
Al317       O330   1.937       .  S
Al317       O327   1.932       .  S
Al317       O322   1.772       .  S
O318        C325   1.263       .  A
O318       Al326   1.923       .  S
O319        C328   1.265       .  A
O319       Al326   1.926       .  S
O320       Al326   1.902       .  S
O321        C328   1.260       .  A
O322       Al326   1.776       .  S
O323        C324   1.265       .  A
C324        C572   1.489       .  S
C325        C584   1.488       .  S
C328        C377   1.486       .  S
C329        O330   1.271       .  A
C329        C608   1.486       .  S
O331        C346   1.260       .  A
O331       Al339   1.896       .  S
C332        O342   1.263       .  A
C332        O333   1.266       .  A
C332        C356   1.492       .  S
O333       Al335   1.925       .  S
O334        C336   1.255       .  A
O334       Al335   1.860       .  S
Al335       O343   1.894       .  S
Al335       O345   1.921       .  S
Al335       O344   1.775       .  S
C336        O349   1.267       .  A
C336        C560   1.459       .  S
O337        C347   1.259       .  A
O337       Al339   1.908       .  S
O338        C351   1.262       .  A
O338       Al348   1.876       .  S
Al339       O352   1.933       .  S
Al339       O349   1.933       .  S
Al339       O344   1.777       .  S
O340        C347   1.261       .  A
O340       Al348   1.918       .  S
O341        C350   1.268       .  A
O341       Al348   1.935       .  S
O342       Al348   1.901       .  S
O343        C350   1.261       .  A
O344       Al348   1.772       .  S
O345        C346   1.262       .  A
C346        C524   1.491       .  S
C347        C512   1.483       .  S
C350        C368   1.487       .  S
C351        O352   1.271       .  A
C351        C596   1.488       .  S
C353        C354   1.405   1_554  A
C353        C358   1.408       .  A
C354        C355   1.401       .  A
C354        H359   1.084   1_556  S
C355        C356   1.417       .  A
C355        C362   1.445       .  S
C356        C357   1.411       .  A
C357        C358   1.401   1_556  A
C357        H360   1.084       .  S
C358        C361   1.443       .  S
C361        N363   1.157       .  T
C362        N364   1.158       .  T
C365        C366   1.403       .  A
C365        C370   1.415       .  A
C366        C367   1.403       .  A
C366        H371   1.084       .  S
C367        C368   1.417       .  A
C367        C374   1.444       .  S
C368        C369   1.404       .  A
C369        C370   1.400       .  A
C369        H372   1.082       .  S
C370        C373   1.445       .  S
C373        N375   1.157       .  T
C374        N376   1.157       .  T
C377        C378   1.406       .  A
C377        C382   1.416       .  A
C378        C379   1.401       .  A
C378        H383   1.084       .  S
C379        C380   1.414       .  A
C379        C386   1.445       .  S
C380        C381   1.403       .  A
C381        C382   1.400       .  A
C381        H384   1.084       .  S
C382        C385   1.444       .  S
C385        N387   1.157       .  T
C386        N388   1.157       .  T
C389        C390   1.408   1_554  A
C389        C394   1.412       .  A
C390        C391   1.401       .  A
C390        H395   1.086   1_556  S
C391        C392   1.413       .  A
C391        C398   1.444       .  S
C392        C393   1.408       .  A
C393        C394   1.402   1_556  A
C393        H396   1.084       .  S
C394        C397   1.444       .  S
C397        N399   1.157       .  T
C398        N400   1.157       .  T
C401       C1187   1.489       .  S
C401        C402   1.402       .  A
C401        C406   1.414       .  A
C402        C403   1.396       .  A
C402        H407   1.085       .  S
C403        C404   1.421       .  A
C403        C410   1.446       .  S
C404        C405   1.410       .  A
C405        C406   1.408       .  A
C405        H408   1.084       .  S
C406       C1337   1.443       .  S
C409       C1334   1.442   1_545  S
C409        N411   1.157       .  T
C410        N412   1.158       .  T
C413        C414   1.407       .  A
C413        C418   1.417       .  A
C414        C415   1.409       .  A
C414        H419   1.085       .  S
C415        C416   1.418       .  A
C415        C422   1.443       .  S
C416        C417   1.407       .  A
C417        C418   1.395       .  A
C417        H420   1.085       .  S
C418        C421   1.446       .  S
C421        N423   1.157       .  T
C422        N424   1.157       .  T
C425        C426   1.405   1_554  A
C425        C430   1.412       .  A
C426        C427   1.395       .  A
C426        H431   1.087       .  S
C427        C428   1.411       .  A
C427        C434   1.445       .  S
C428        C429   1.404       .  A
C429        C430   1.394   1_556  A
C429        H432   1.087       .  S
C430        C433   1.445       .  S
C433        N435   1.157       .  T
C434        N436   1.157       .  T
C437        C438   1.406       .  A
C437        C442   1.414       .  A
C438        C439   1.398   1_556  A
C438        H443   1.091       .  S
C439        C440   1.414       .  A
C439        C446   1.445       .  S
C440        C441   1.409   1_554  A
C441        C442   1.404       .  A
C441        H444   1.090       .  S
C442        C445   1.444       .  S
C445        N447   1.157       .  T
C446        N448   1.157       .  T
C449        C450   1.407   1_554  A
C449       C1382   1.412       .  A
C450        C451   1.398       .  A
C450        H455   1.085       .  S
C451       C1380   1.412       .  A
C451        C458   1.444       .  S
C452        C453   1.407       .  A
C452       C1379   1.413   1_545  A
C453        C454   1.402   1_556  A
C453        H456   1.085       .  S
C454       C1377   1.414   1_545  A
C454        C457   1.444       .  S
C457        N459   1.157       .  T
C458        N460   1.157       .  T
C461        C462   1.407       .  A
C461        C466   1.417       .  A
C462        C463   1.395       .  A
C462        H467   1.085       .  S
C463        C464   1.413       .  A
C463        C470   1.446       .  S
C464        C465   1.406       .  A
C465        C466   1.406       .  A
C465        H468   1.085       .  S
C466        C469   1.444       .  S
C469        N471   1.157       .  T
C470        N472   1.157       .  T
C473       C1165   1.478   1_545  S
C473        C474   1.403       .  A
C473        C478   1.409       .  A
C474        C475   1.399       .  A
C474        H479   1.085       .  S
C475        C476   1.414       .  A
C475        C482   1.445       .  S
C476        C477   1.411       .  A
C477        C478   1.404       .  A
C477        H480   1.084       .  S
C478       C1409   1.444       .  S
C481       C1406   1.444       .  S
C481        N483   1.157       .  T
C482        N484   1.157       .  T
C485        C486   1.404       .  A
C485        C490   1.418       .  A
C486        C487   1.397   1_655  A
C486        H491   1.084       .  S
C487        C488   1.419       .  A
C487        C494   1.446       .  S
C488        C489   1.405       .  A
C489        C490   1.405   1_455  A
C489        H492   1.084       .  S
C490        C493   1.443       .  S
C493        N495   1.157       .  T
C494        N496   1.158       .  T
C497        C498   1.399       .  A
C497        C502   1.421   1_554  A
C498        C499   1.396   1_554  A
C498        H503   1.085       .  S
C499        C500   1.420       .  A
C499        C506   1.445       .  S
C500        C501   1.400       .  A
C501        C502   1.397       .  A
C501        H504   1.085       .  S
C502        C505   1.445       .  S
C505        N507   1.157       .  T
C506        N508   1.157       .  T
C509        C510   1.407       .  A
C509        C514   1.421       .  A
C510        C511   1.400       .  A
C510        H515   1.084       .  S
C511        C512   1.412       .  A
C511        C518   1.445       .  S
C512        C513   1.402       .  A
C513        C514   1.405       .  A
C513        H516   1.085       .  S
C514        C517   1.444       .  S
C517        N519   1.157       .  T
C518        N520   1.157       .  T
C521       C1132   1.478       .  S
C521        C522   1.400       .  A
C521        C526   1.411       .  A
C522        C523   1.403       .  A
C522        H527   1.085       .  S
C523        C524   1.422       .  A
C523        C530   1.444       .  S
C524        C525   1.406       .  A
C525        C526   1.400       .  A
C525        H528   1.085       .  S
C526        C529   1.445       .  S
C529        N531   1.157       .  T
C530        N532   1.157       .  T
C533        C534   1.407       .  A
C533        C538   1.415       .  A
C534        C535   1.401   1_655  A
C534        H539   1.085       .  S
C535        C536   1.414       .  A
C535        C542   1.445       .  S
C536        C537   1.406       .  A
C537        C538   1.402   1_455  A
C537        H540   1.085       .  S
C538        C541   1.444       .  S
C541        N543   1.157       .  T
C542        N544   1.157       .  T
C545        C546   1.409       .  A
C545       C1478   1.413   1_545  A
C546        C547   1.402   1_556  A
C546        H551   1.084       .  S
C547       C1476   1.411   1_545  A
C547        C554   1.444       .  S
C548        C549   1.408   1_554  A
C548       C1475   1.413       .  A
C549        C550   1.404       .  A
C549        H552   1.087       .  S
C550       C1473   1.414       .  A
C550        C553   1.444       .  S
C553        N555   1.157       .  T
C554        N556   1.157       .  T
C557        C558   1.400       .  A
C557        C562   1.408   1_554  A
C558        C559   1.395   1_554  A
C558        H563   1.085       .  S
C559        C560   1.410       .  A
C559        C566   1.445       .  S
C560        C561   1.401       .  A
C561        C562   1.395       .  A
C561        H564   1.085       .  S
C562        C565   1.445       .  S
C565        N567   1.157       .  T
C566        N568   1.157   1_556  T
C569       C1110   1.480   1_545  S
C569        C570   1.402       .  A
C569        C574   1.411       .  A
C570        C571   1.398       .  A
C570        H575   1.085       .  S
C571        C572   1.417       .  A
C571        C578   1.445       .  S
C572        C573   1.409       .  A
C573        C574   1.404       .  A
C573        H576   1.084       .  S
C574       C1505   1.444       .  S
C577       C1502   1.444       .  S
C577        N579   1.157       .  T
C578        N580   1.157       .  T
C581        C582   1.411       .  A
C581        C586   1.420       .  A
C582        C583   1.408       .  A
C582        H587   1.084       .  S
C583        C584   1.413       .  A
C583        C590   1.444       .  S
C584        C585   1.403       .  A
C585        C586   1.399       .  A
C585        H588   1.086       .  S
C586        C589   1.445       .  S
C589        N591   1.158       .  T
C590        N592   1.157       .  T
C593        C594   1.404       .  A
C593        C598   1.417       .  A
C594        C595   1.393       .  A
C594        H599   1.085       .  S
C595        C596   1.417       .  A
C595        C602   1.444       .  S
C596        C597   1.407       .  A
C597        C598   1.402       .  A
C597        H600   1.084       .  S
C598        C601   1.445       .  S
C601        N603   1.157       .  T
C602        N604   1.157       .  T
C605        C606   1.404       .  A
C605        C610   1.415       .  A
C606        C607   1.405       .  A
C606        H611   1.085       .  S
C607        C608   1.416       .  A
C607        C614   1.444       .  S
C608        C609   1.403       .  A
C609        C610   1.401       .  A
C609        H612   1.085       .  S
C610        C613   1.445       .  S
C613        N615   1.157       .  T
C614        N616   1.157       .  T
C617        C618   1.411       .  A
C617        C622   1.414       .  A
C618        C619   1.400       .  A
C618        H623   1.084       .  S
C619        C620   1.407       .  A
C619        C626   1.443       .  S
C620        C621   1.404       .  A
C621        C622   1.397       .  A
C621        H624   1.082       .  S
C622        C625   1.445       .  S
C625        N627   1.157       .  T
C626        N628   1.157       .  T
C629        C630   1.401       .  A
C629        C634   1.411       .  A
C630        C631   1.403       .  A
C630        H635   1.083       .  S
C631        C632   1.410       .  A
C631        C638   1.443       .  S
C632        C633   1.402       .  A
C633        C634   1.403       .  A
C633        H636   1.084       .  S
C634        C637   1.444       .  S
C637        N639   1.157       .  T
C638        N640   1.157       .  T
C641        C642   1.404       .  A
C641        C646   1.414       .  A
C642        C643   1.404       .  A
C642        H647   1.084       .  S
C643        C644   1.417       .  A
C643        C650   1.444       .  S
C644        C645   1.406       .  A
C645        C646   1.401       .  A
C645        H648   1.084       .  S
C646        C649   1.445       .  S
C649        N651   1.157       .  T
C650        N652   1.157       .  T
C653        C654   1.404       .  A
C653        C658   1.412       .  A
C654        C655   1.399       .  A
C654        H659   1.085       .  S
C655        C656   1.413       .  A
C655        C662   1.444       .  S
C656        C657   1.404       .  A
C657        C658   1.397       .  A
C657        H660   1.085       .  S
C658        C661   1.444       .  S
C661        N663   1.157       .  T
C662        N664   1.157       .  T
C665        C666   1.404       .  A
C665        C670   1.417       .  A
C666        C667   1.402       .  A
C666        H671   1.085       .  S
C667        C668   1.416       .  A
C667        C674   1.445       .  S
C668        C669   1.403       .  A
C669        C670   1.400       .  A
C669        H672   1.085       .  S
C670        C673   1.445       .  S
C673        N675   1.157       .  T
C674        N676   1.157       .  T
C677        C678   1.406       .  A
C677        C682   1.409       .  A
C678        C679   1.403       .  A
C678        H683   1.086       .  S
C679        C680   1.415       .  A
C679        C686   1.444       .  S
C680        C681   1.409       .  A
C681        C682   1.399       .  A
C681        H684   1.086       .  S
C682        C685   1.444       .  S
C685        N687   1.157       .  T
C686        N688   1.157       .  T
C689        C690   1.404       .  A
C689        C694   1.413       .  A
C690        C691   1.397       .  A
C690        H695   1.086       .  S
C691        C692   1.412       .  A
C691        C698   1.445       .  S
C692        C693   1.405       .  A
C693        C694   1.401       .  A
C693        H696   1.086       .  S
C694        C697   1.444       .  S
C697        N699   1.157       .  T
C698       N1628   1.157       .  T
N700       C1626   1.157       .  T
C701       C1000   1.484       .  S
C701        C702   1.402       .  A
C701        C706   1.411       .  A
C702        C703   1.401       .  A
C702        H707   1.085       .  S
C703        C704   1.417       .  A
C703        C710   1.444       .  S
C704        C705   1.411       .  A
C705        C706   1.407       .  A
C705        H708   1.084       .  S
C706       C1637   1.444       .  S
C709       C1634   1.443       .  S
C709        N711   1.157   1_565  T
C710        N712   1.157       .  T
C713        C714   1.411       .  A
C713        C718   1.418       .  A
C714        C715   1.407       .  A
C714        H719   1.087       .  S
C715        C716   1.412       .  A
C715        C722   1.443       .  S
C716        C717   1.402       .  A
C717        C718   1.401       .  A
C717        H720   1.087       .  S
C718        C721   1.445       .  S
C721        N723   1.158       .  T
C722        N724   1.157       .  T
C725        C726   1.403       .  A
C725        C730   1.408       .  A
C726        C727   1.399       .  A
C726        H731   1.085       .  S
C727        C728   1.409       .  A
C727        C734   1.445       .  S
C728        C729   1.400       .  A
C729        C730   1.394       .  A
C729        H732   1.085       .  S
C730        C733   1.443       .  S
C733        N735   1.156       .  T
C734        N736   1.157       .  T
C737        C738   1.404       .  A
C737        C742   1.416       .  A
C738        C739   1.399       .  A
C738        H743   1.087       .  S
C739        C740   1.418       .  A
C739        C746   1.443       .  S
C740        C741   1.406       .  A
C741        C742   1.403       .  A
C741        H744   1.086       .  S
C742        C745   1.444       .  S
C745        N747   1.157       .  T
C746        N748   1.157       .  T
C749        C750   1.405       .  A
C749        C754   1.411       .  A
C750        C751   1.396       .  A
C750        H755   1.086       .  S
C751        C752   1.410       .  A
C751        C758   1.443       .  S
C752        C753   1.407       .  A
C753        C754   1.400       .  A
C753        H756   1.085       .  S
C754        C757   1.444       .  S
C757        N759   1.157       .  T
C758        N760   1.157       .  T
C761        C762   1.405       .  A
C761       C1694   1.410       .  A
C762        C763   1.403       .  A
C762        H767   1.087       .  S
C763       C1692   1.417       .  A
C763        C770   1.444       .  S
C764        C765   1.407       .  A
C764       C1691   1.415   1_545  A
C765        C766   1.402       .  A
C765        H768   1.086       .  S
C766       C1689   1.413   1_545  A
C766        C769   1.444       .  S
C769        N771   1.157       .  T
C770        N772   1.157       .  T
C773        C774   1.403       .  A
C773        C778   1.412       .  A
C774        C775   1.399       .  A
C774        H779   1.086       .  S
C775        C776   1.419       .  A
C775        C782   1.445       .  S
C776        C777   1.410       .  A
C777        C778   1.404       .  A
C777        H780   1.085       .  S
C778        C781   1.444       .  S
C781        N783   1.157       .  T
C782        N784   1.158       .  T
C785        C978   1.481   1_545  S
C785        C786   1.402       .  A
C785        C790   1.410       .  A
C786        C787   1.401       .  A
C786        H791   1.085       .  S
C787        C788   1.417       .  A
C787        C794   1.445       .  S
C788        C789   1.410       .  A
C789        C790   1.407       .  A
C789        H792   1.084       .  S
C790        C793   1.444       .  S
C793        N795   1.157   1_545  T
C794        N796   1.157       .  T
C797        C798   1.407       .  A
C797        C802   1.415       .  A
C798        C799   1.406       .  A
C798        H803   1.085       .  S
C799        C800   1.415       .  A
C799        C806   1.444       .  S
C800        C801   1.404       .  A
C801        C802   1.397       .  A
C801        H804   1.086       .  S
C802        C805   1.445       .  S
C805        N807   1.157       .  T
C806        N808   1.157       .  T
C809        C810   1.405       .  A
C809        C814   1.414       .  A
C810        C811   1.403   1_655  A
C810        H815   1.085       .  S
C811        C812   1.417       .  A
C811        C818   1.444       .  S
C812        C813   1.407       .  A
C813        C814   1.402   1_455  A
C813        H816   1.085       .  S
C814        C817   1.445       .  S
C817        N819   1.157       .  T
C818        N820   1.157       .  T
C821        C822   1.400       .  A
C821        C826   1.423       .  A
C822        C823   1.397       .  A
C822        H827   1.086       .  S
C823        C824   1.422       .  A
C823        C830   1.445       .  S
C824        C825   1.400       .  A
C825        C826   1.400       .  A
C825        H828   1.086       .  S
C826        C829   1.445       .  S
C829        N831   1.157       .  T
C830        N832   1.157       .  T
C833        C834   1.409       .  A
C833        C838   1.421       .  A
C834        C835   1.408       .  A
C834        H839   1.084       .  S
C835        C836   1.415       .  A
C835        C842   1.443       .  S
C836        C837   1.404       .  A
C837        C838   1.398       .  A
C837        H840   1.084       .  S
C838        C841   1.446       .  S
C841        N843   1.158       .  T
C842        N844   1.157       .  T
C845        C846   1.411       .  A
C845        C850   1.414       .  A
C846        C847   1.405       .  A
C846        H851   1.084       .  S
C847        C848   1.409       .  A
C847       C1782   1.444       .  S
C848        C967   1.478       .  S
C848        C849   1.402       .  A
C849        C850   1.398       .  A
C849        H852   1.085       .  S
C850        C853   1.445       .  S
C853        N855   1.157       .  T
C854       C1775   1.444       .  S
C854        N856   1.157   1_565  T
C857        C858   1.405       .  A
C857        C862   1.411       .  A
C858        C859   1.399       .  A
C858        H863   1.085       .  S
C859        C860   1.411       .  A
C859        C866   1.445       .  S
C860        C861   1.405       .  A
C861        C862   1.400       .  A
C861        H864   1.085       .  S
C862        C865   1.444       .  S
C865        N867   1.157       .  T
C866        N868   1.157       .  T
C869        C870   1.407       .  A
C869        C874   1.415       .  A
C870        C871   1.404   1_655  A
C870        H875   1.085       .  S
C871        C872   1.416       .  A
C871        C878   1.444       .  S
C872        C873   1.404       .  A
C873        C874   1.395   1_455  A
C873        H876   1.085       .  S
C874        C877   1.445       .  S
C877        N879   1.157       .  T
C878        N880   1.157       .  T
C881        C882   1.409       .  A
C881       C1814   1.416       .  A
C882        C883   1.400       .  A
C882        H887   1.085       .  S
C883       C1812   1.410       .  A
C883        C890   1.444       .  S
C884        C885   1.404       .  A
C884       C1811   1.409   1_545  A
C885        C886   1.402       .  A
C885        H888   1.086       .  S
C886       C1809   1.417   1_545  A
C886        C889   1.444       .  S
C889        N891   1.157       .  T
C890        N892   1.157       .  T
C893        C894   1.403       .  A
C893        C898   1.409       .  A
C894        C895   1.397       .  A
C894        H899   1.084       .  S
C895        C896   1.409       .  A
C895        C902   1.444       .  S
C896        C897   1.402       .  A
C897        C898   1.395       .  A
C897        H900   1.084       .  S
C898        C901   1.444       .  S
C901        N903   1.157       .  T
C902        N904   1.157       .  T
C905        C945   1.484   1_545  S
C905        C906   1.404       .  A
C905        C910   1.413       .  A
C906        C907   1.406       .  A
C906       H1839   1.086       .  S
C907        C908   1.420       .  A
C907        C914   1.444       .  S
C908        C909   1.406       .  A
C909        C910   1.396       .  A
C909        H912   1.086       .  S
C910        C913   1.446       .  S
H911       C1834   1.085       .  S
C913        N915   1.157       .  T
C914        N916   1.158       .  T
C917        C918   1.403       .  A
C917        C922   1.411       .  A
C918        C919   1.406       .  A
C918        H923   1.086       .  S
C919        C920   1.421       .  A
C919        C926   1.444       .  S
C920        C921   1.406       .  A
C921        C922   1.398       .  A
C921        H924   1.085       .  S
C922        C925   1.444       .  S
C925        N927   1.157       .  T
C926        N928   1.158       .  T
O929        C944   1.261       .  A
O929       Al937   1.897       .  S
C930        O940   1.265       .  A
C930        O931   1.266       .  A
C930       C1809   1.494       .  S
O931       Al933   1.926       .  S
O932        C934   1.257       .  A
O932       Al933   1.872       .  S
Al933       O941   1.908       .  S
Al933       O943   1.929       .  S
Al933       O942   1.779       .  S
C934        O947   1.266       .  A
C934       C1821   1.464       .  S
O935        C945   1.259       .  A
O935       Al937   1.908       .  S
O936        C949   1.264       .  A
O936       Al946   1.891       .  S
Al937       O950   1.931       .  S
Al937       O947   1.926       .  S
Al937       O942   1.779       .  S
O938        C945   1.260       .  A
O938       Al946   1.908       .  S
O939        C948   1.265       .  A
O939       Al946   1.920       .  S
O940       Al946   1.908       .  S
O941        C948   1.265       .  A
O942       Al946   1.774       .  S
O943        C944   1.263       .  A
C944       C1848   1.497       .  S
C948       C1797   1.491       .  S
C949        O950   1.269       .  A
C949       C1788   1.480       .  S
O951        C966   1.256       .  A
O951       Al959   1.879       .  S
C952        O962   1.265       .  A
C952        O953   1.269       .  A
C952       C1812   1.483       .  S
O953       Al955   1.935       .  S
O954        C956   1.255       .  A
O954       Al955   1.862       .  S
Al955       O963   1.910       .  S
Al955       O965   1.933       .  S
Al955       O964   1.782       .  S
C956        O969   1.268       .  A
C956       C1749   1.474       .  S
O957        C967   1.257       .  A
O957       Al959   1.905       .  S
O958        C971   1.266       .  A
O958       Al968   1.882       .  S
Al959       O972   1.943       .  S
Al959       O969   1.931       .  S
Al959       O964   1.774       .  S
O960        C967   1.260       .  A
O960       Al968   1.913       .  S
O961        C970   1.264       .  A
O961       Al968   1.917       .  S
O962       Al968   1.894       .  S
O963        C970   1.263       .  A
O964       Al968   1.774       .  S
O965        C966   1.265       .  A
C966       C1761   1.492       .  S
C970       C1737   1.491       .  S
C971        O972   1.272       .  A
C971       C1728   1.493       .  S
O973        C988   1.273       .  A
O973       Al981   1.946       .  S
C974        O984   1.268       .  A
C974        O975   1.264       .  A
C974       C1689   1.490       .  S
O975       Al977   1.900       .  S
O976        C978   1.262       .  A
O976       Al977   1.926       .  S
Al977       O985   1.926       .  S
Al977       O987   1.887       .  S
Al977       O986   1.776       .  S
C978        O991   1.258       .  A
O979        C989   1.268       .  A
O979       Al981   1.939       .  S
O980        C993   1.265       .  A
O980       Al990   1.935       .  S
Al981       O994   1.888       .  S
Al981       O991   1.904       .  S
Al981       O986   1.775       .  S
O982        C989   1.257       .  A
O982       Al990   1.864       .  S
O983        C992   1.263       .  A
O983       Al990   1.904       .  S
O984       Al990   1.933       .  S
O985        C992   1.267       .  A
O986       Al990   1.781       .  S
O987        C988   1.263       .  A
C988       C1668   1.494       .  S
C989       C1677   1.477       .  S
C992       C1800   1.492       .  S
C993        O994   1.258       .  A
C993       C1704   1.496       .  S
O995       C1010   1.268       .  A
O995      Al1003   1.931       .  S
C996       O1006   1.269       .  A
C996        O997   1.264       .  A
C996       C1692   1.494       .  S
O997       Al999   1.899       .  S
O998       C1000   1.263       .  A
O998       Al999   1.927       .  S
Al999      O1007   1.924       .  S
Al999      O1009   1.887       .  S
Al999      O1008   1.772       .  S
C1000      O1013   1.260       .  A
O1001      C1011   1.265       .  A
O1001     Al1003   1.928       .  S
O1002      C1015   1.267       .  A
O1002     Al1012   1.940       .  S
Al1003     O1016   1.883       .  S
Al1003     O1013   1.906       .  S
Al1003     O1008   1.773       .  S
O1004      C1011   1.256       .  A
O1004     Al1012   1.871       .  S
O1005      C1014   1.263       .  A
O1005     Al1012   1.905       .  S
O1006     Al1012   1.935       .  S
O1007      C1014   1.267       .  A
O1008     Al1012   1.778       .  S
O1009      C1010   1.263       .  A
C1010      C1617   1.480       .  S
C1011      C1653   1.463       .  S
C1014      C1740   1.493       .  S
C1015      O1016   1.258       .  A
C1015      C1641   1.492       .  S
O1017      C1032   1.257       .  A
O1017     Al1025   1.883       .  S
C1018      O1028   1.265       .  A
C1018      O1019   1.268       .  A
C1018      C1608   1.487       .  S
O1019     Al1021   1.929       .  S
O1020      C1022   1.256       .  A
O1020     Al1021   1.872       .  S
Al1021     O1029   1.911       .  S
Al1021     O1031   1.939       .  S
Al1021     O1030   1.779       .  S
C1022      O1035   1.265       .  A
C1022      C1656   1.462       .  S
O1023      C1033   1.259       .  A
O1023     Al1025   1.906       .  S
O1024      C1037   1.264       .  A
O1024     Al1034   1.884       .  S
Al1025     O1038   1.926       .  S
Al1025     O1035   1.925       .  S
Al1025     O1030   1.773       .  S
O1026      C1033   1.262       .  A
O1026     Al1034   1.924       .  S
O1027      C1036   1.264       .  A
O1027     Al1034   1.915       .  S
O1028     Al1034   1.897       .  S
O1029      C1036   1.265       .  A
O1030     Al1034   1.773       .  S
O1031      C1032   1.266       .  A
C1032      C1716   1.491       .  S
C1033      C1701   1.486       .  S
C1036      C1593   1.489       .  S
C1037      O1038   1.270       .  A
C1037      C1581   1.478       .  S
O1039      C1054   1.258       .  A
O1039     Al1047   1.894       .  S
C1040      O1050   1.263       .  A
C1040      O1041   1.265       .  A
C1040      C1605   1.479       .  S
O1041     Al1043   1.924       .  S
O1042      C1044   1.259       .  A
O1042     Al1043   1.873       .  S
Al1043     O1051   1.905       .  S
Al1043     O1053   1.929       .  S
Al1043     O1052   1.783       .  S
C1044      O1057   1.270       .  A
C1044      C1680   1.478       .  S
O1045      C1055   1.257       .  A
O1045     Al1047   1.901       .  S
O1046      C1059   1.261       .  A
O1046     Al1056   1.877       .  S
Al1047     O1060   1.937       .  S
Al1047     O1057   1.935       .  S
Al1047     O1052   1.774       .  S
O1048      C1055   1.261       .  A
O1048     Al1056   1.919       .  S
O1049      C1058   1.267       .  A
O1049     Al1056   1.923       .  S
O1050     Al1056   1.896       .  S
O1051      C1058   1.265       .  A
O1052     Al1056   1.779       .  S
O1053      C1054   1.263       .  A
C1054      C1632   1.491       .  S
C1055      C1644   1.481       .  S
C1058      C1569   1.487       .  S
C1059      O1060   1.271       .  A
C1059      C1557   1.477       .  S
O1061      C1076   1.273       .  A
O1061     Al1069   1.949       .  S
C1062      O1072   1.267       .  A
C1062      O1063   1.266       .  A
C1062      C1548   1.479       .  S
O1063     Al1065   1.902       .  S
O1064      C1066   1.261       .  A
O1064     Al1065   1.921       .  S
Al1065     O1073   1.927       .  S
Al1065     O1075   1.877       .  S
Al1065     O1074   1.776       .  S
C1066      O1079   1.258       .  A
C1066      C1845   1.486       .  S
O1067      C1077   1.271       .  A
O1067     Al1069   1.944       .  S
O1068      C1081   1.262       .  A
O1068     Al1078   1.926       .  S
Al1069     O1082   1.889       .  S
Al1069     O1079   1.911       .  S
Al1069     O1074   1.776       .  S
O1070      C1077   1.254       .  A
O1070     Al1078   1.854       .  S
O1071      C1080   1.261       .  A
O1071     Al1078   1.898       .  S
O1072     Al1078   1.925       .  S
O1073      C1080   1.267       .  A
O1074     Al1078   1.780       .  S
O1075      C1076   1.263       .  A
C1076      C1533   1.490       .  S
C1077      C1752   1.475       .  S
C1080      C1596   1.487       .  S
C1081      O1082   1.258       .  A
C1081      C1836   1.495       .  S
O1083      C1098   1.269       .  A
O1083     Al1091   1.937       .  S
C1084      O1094   1.267       .  A
C1084      O1085   1.263       .  A
C1084      C1545   1.492       .  S
O1085     Al1087   1.896       .  S
O1086      C1088   1.263       .  A
O1086     Al1087   1.923       .  S
Al1087     O1095   1.928       .  S
Al1087     O1097   1.881       .  S
Al1087     O1096   1.772       .  S
C1088      O1101   1.259       .  A
C1088      C1764   1.483       .  S
O1089      C1099   1.267       .  A
O1089     Al1091   1.930       .  S
O1090      C1103   1.265       .  A
O1090     Al1100   1.938       .  S
Al1091     O1104   1.887       .  S
Al1091     O1101   1.902       .  S
Al1091     O1096   1.772       .  S
O1092      C1099   1.256       .  A
O1092     Al1100   1.872       .  S
O1093      C1102   1.263       .  A
O1093     Al1100   1.901       .  S
O1094     Al1100   1.930       .  S
O1095      C1102   1.268       .  A
O1096     Al1100   1.779       .  S
O1097      C1098   1.264       .  A
C1098      C1521   1.492       .  S
C1099      C1824   1.464       .  S
C1102      C1572   1.490       .  S
C1103      O1104   1.259       .  A
C1103      C1773   1.492       .  S
O1105      C1120   1.270       .  A
O1105     Al1113   1.939       .  S
C1106      O1116   1.266       .  A
C1106      O1107   1.266       .  A
C1106      C1476   1.486       .  S
O1107     Al1109   1.906       .  S
O1108      C1110   1.263       .  A
O1108     Al1109   1.925       .  S
Al1109     O1117   1.924       .  S
Al1109     O1119   1.885       .  S
Al1109     O1118   1.773       .  S
C1110      O1123   1.257       .  A
O1111      C1121   1.268       .  A
O1111     Al1113   1.936       .  S
O1112      C1125   1.265       .  A
O1112     Al1122   1.939       .  S
Al1113     O1126   1.883       .  S
Al1113     O1123   1.895       .  S
Al1113     O1118   1.774       .  S
O1114      C1121   1.257       .  A
O1114     Al1122   1.870       .  S
O1115      C1124   1.265       .  A
O1115     Al1122   1.905       .  S
O1116     Al1122   1.926       .  S
O1117      C1124   1.267       .  A
O1118     Al1122   1.777       .  S
O1119      C1120   1.263       .  A
C1120      C1785   1.480       .  S
C1121      C1485   1.463       .  S
C1124      C1461   1.489       .  S
C1125      O1126   1.256       .  A
C1125      C1509   1.495       .  S
O1127      C1142   1.272       .  A
O1127     Al1135   1.945       .  S
C1128      O1138   1.268       .  A
C1128      O1129   1.265       .  A
C1128      C1473   1.492       .  S
O1129     Al1131   1.906       .  S
O1130      C1132   1.260       .  A
O1130     Al1131   1.913       .  S
Al1131     O1139   1.921       .  S
Al1131     O1141   1.878       .  S
Al1131     O1140   1.771       .  S
C1132      O1145   1.258       .  A
O1133      C1143   1.270       .  A
O1133     Al1135   1.937       .  S
O1134      C1147   1.263       .  A
O1134     Al1144   1.933       .  S
Al1135     O1148   1.891       .  S
Al1135     O1145   1.905       .  S
Al1135     O1140   1.775       .  S
O1136      C1143   1.254       .  A
O1136     Al1144   1.856       .  S
O1137      C1146   1.262       .  A
O1137     Al1144   1.899       .  S
O1138     Al1144   1.934       .  S
O1139      C1146   1.268       .  A
O1140     Al1144   1.779       .  S
O1141      C1142   1.262       .  A
C1142      C1725   1.494       .  S
C1143      C1428   1.475       .  S
C1146      C1413   1.489       .  S
C1147      O1148   1.259       .  A
C1147      C1437   1.496       .  S
O1149      C1164   1.258       .  A
O1149     Al1157   1.881       .  S
C1150      O1160   1.265       .  A
C1150      O1151   1.269       .  A
C1150      C1377   1.487       .  S
O1151     Al1153   1.931       .  S
O1152      C1154   1.258       .  A
O1152     Al1153   1.878       .  S
Al1153     O1161   1.905       .  S
Al1153     O1163   1.932       .  S
Al1153     O1162   1.782       .  S
C1154      O1167   1.266       .  A
C1154      C1368   1.486       .  S
O1155      C1165   1.258       .  A
O1155     Al1157   1.906       .  S
O1156      C1169   1.267       .  A
O1156     Al1166   1.895       .  S
Al1157     O1170   1.939       .  S
Al1157     O1167   1.929       .  S
Al1157     O1162   1.772       .  S
O1158      C1165   1.261       .  A
O1158     Al1166   1.916       .  S
O1159      C1168   1.263       .  A
O1159     Al1166   1.919       .  S
O1160     Al1166   1.897       .  S
O1161      C1168   1.263       .  A
O1162     Al1166   1.776       .  S
O1163      C1164   1.264       .  A
C1164      C1389   1.494       .  S
C1168      C1464   1.489       .  S
C1169      O1170   1.270       .  A
C1169      C1665   1.493       .  S
O1171      C1186   1.256       .  A
O1171     Al1179   1.875       .  S
C1172      O1182   1.266       .  A
C1172      O1173   1.269       .  A
C1172      C1380   1.484       .  S
O1173     Al1175   1.929       .  S
O1174      C1176   1.256       .  A
O1174     Al1175   1.860       .  S
Al1175     O1183   1.908       .  S
Al1175     O1185   1.929       .  S
Al1175     O1184   1.781       .  S
C1176      O1189   1.267       .  A
C1176      C1356   1.472       .  S
O1177      C1187   1.258       .  A
O1177     Al1179   1.907       .  S
O1178      C1191   1.265       .  A
O1178     Al1188   1.886       .  S
Al1179     O1192   1.933       .  S
Al1179     O1189   1.927       .  S
Al1179     O1184   1.772       .  S
O1180      C1187   1.262       .  A
O1180     Al1188   1.915       .  S
O1181      C1190   1.263       .  A
O1181     Al1188   1.913       .  S
O1182     Al1188   1.897       .  S
O1183      C1190   1.264       .  A
O1184     Al1188   1.769       .  S
O1185      C1186   1.262       .  A
C1186      C1344   1.490       .  S
C1190      C1416   1.488       .  S
C1191      O1192   1.270       .  A
C1191      C1620   1.479       .  S
O1193      C1208   1.268       .  A
O1193     Al1201   1.923       .  S
C1194      O1204   1.267       .  A
C1194      O1195   1.266       .  A
C1194      C1317   1.486       .  S
O1195     Al1197   1.907       .  S
O1196      C1198   1.259       .  A
O1196     Al1197   1.909       .  S
Al1197     O1205   1.918       .  S
Al1197     O1207   1.883       .  S
Al1197     O1206   1.776       .  S
C1198      O1211   1.258       .  A
C1198      C1392   1.486       .  S
O1199      C1209   1.266       .  A
O1199     Al1201   1.918       .  S
O1200      C1213   1.261       .  A
O1200     Al1210   1.916       .  S
Al1201     O1214   1.891       .  S
Al1201     O1211   1.907       .  S
Al1201     O1206   1.779       .  S
O1202      C1209   1.258       .  A
O1202     Al1210   1.866       .  S
O1203      C1212   1.263       .  A
O1203     Al1210   1.906       .  S
O1204     Al1210   1.923       .  S
O1205      C1212   1.264       .  A
O1206     Al1210   1.780       .  S
O1207      C1208   1.265       .  A
C1208      C1584   1.478       .  S
C1209      C1353   1.472       .  S
C1212      C1308   1.488       .  S
C1213      O1214   1.258       .  A
C1213      C1404   1.488       .  S
O1215      C1230   1.269       .  A
O1215     Al1223   1.932       .  S
C1216      O1226   1.269       .  A
C1216      O1217   1.263       .  A
C1216      C1320   1.491       .  S
O1217     Al1219   1.893       .  S
O1218      C1220   1.261       .  A
O1218     Al1219   1.910       .  S
Al1219     O1227   1.914       .  S
Al1219     O1229   1.893       .  S
Al1219     O1228   1.775       .  S
C1220      O1233   1.258       .  A
C1220      C1341   1.482       .  S
O1221      C1231   1.269       .  A
O1221     Al1223   1.944       .  S
O1222      C1235   1.265       .  A
O1222     Al1232   1.944       .  S
Al1223     O1236   1.872       .  S
Al1223     O1233   1.899       .  S
Al1223     O1228   1.768       .  S
O1224      C1231   1.258       .  A
O1224     Al1232   1.869       .  S
O1225      C1234   1.264       .  A
O1225     Al1232   1.904       .  S
O1226     Al1232   1.936       .  S
O1227      C1234   1.265       .  A
O1228     Al1232   1.783       .  S
O1229      C1230   1.263       .  A
C1230      C1560   1.477       .  S
C1231      C1365   1.486       .  S
C1234      C1293   1.481       .  S
C1235      O1236   1.252       .  A
C1235      C1332   1.489       .  S
O1237      C1252   1.257       .  A
O1237     Al1245   1.880       .  S
C1238      O1248   1.266       .  A
C1238      O1239   1.270       .  A
C1238      C1281   1.483       .  S
O1239     Al1241   1.933       .  S
O1240      C1242   1.252       .  A
O1240     Al1241   1.856       .  S
Al1241     O1249   1.905       .  S
Al1241     O1251   1.938       .  S
Al1241     O1250   1.781       .  S
C1242      O1255   1.267       .  A
C1242      C1425   1.477       .  S
O1243      C1253   1.258       .  A
O1243     Al1245   1.906       .  S
O1244      C1257   1.268       .  A
O1244     Al1254   1.891       .  S
Al1245     O1258   1.935       .  S
Al1245     O1255   1.922       .  S
Al1245     O1250   1.774       .  S
O1246      C1253   1.261       .  A
O1246     Al1254   1.917       .  S
O1247      C1256   1.264       .  A
O1247     Al1254   1.919       .  S
O1248     Al1254   1.904       .  S
O1249      C1256   1.261       .  A
O1250     Al1254   1.777       .  S
O1251      C1252   1.266       .  A
C1252      C1500   1.494       .  S
C1253      C1512   1.485       .  S
C1256      C1305   1.490       .  S
C1257      O1258   1.270       .  A
C1257      C1536   1.490       .  S
O1259      C1274   1.260       .  A
O1259     Al1267   1.893       .  S
C1260      O1270   1.263       .  A
C1260      O1261   1.267       .  A
C1260      C1284   1.497       .  S
O1261     Al1263   1.934       .  S
O1262      C1264   1.256       .  A
O1262     Al1263   1.865       .  S
Al1263     O1271   1.892       .  S
Al1263     O1273   1.931       .  S
Al1263     O1272   1.777       .  S
C1264      O1277   1.268       .  A
C1264      C1488   1.463       .  S
O1265      C1275   1.259       .  A
O1265     Al1267   1.904       .  S
O1266      C1279   1.262       .  A
O1266     Al1276   1.883       .  S
Al1267     O1280   1.938       .  S
Al1267     O1277   1.937       .  S
Al1267     O1272   1.776       .  S
O1268      C1275   1.263       .  A
O1268     Al1276   1.921       .  S
O1269      C1278   1.269       .  A
O1269     Al1276   1.932       .  S
O1270     Al1276   1.901       .  S
O1271      C1278   1.261       .  A
O1272     Al1276   1.771       .  S
O1273      C1274   1.263       .  A
C1274      C1452   1.495       .  S
C1275      C1440   1.483       .  S
C1278      C1296   1.486       .  S
C1279      O1280   1.270       .  A
C1279      C1524   1.493       .  S
C1281      C1282   1.401   1_554  A
C1281      C1286   1.408       .  A
C1282      C1283   1.400       .  A
C1282      H1287   1.089   1_556  S
C1283      C1284   1.419       .  A
C1283      C1290   1.445       .  S
C1284      C1285   1.412       .  A
C1285      C1286   1.405   1_556  A
C1285      H1288   1.086       .  S
C1286      C1289   1.443       .  S
C1289      N1291   1.157       .  T
C1290      N1292   1.158       .  T
C1293      C1294   1.403       .  A
C1293      C1298   1.412       .  A
C1294      C1295   1.401       .  A
C1294      H1299   1.085       .  S
C1295      C1296   1.417       .  A
C1295      C1302   1.444       .  S
C1296      C1297   1.404       .  A
C1297      C1298   1.399       .  A
C1297      H1300   1.083       .  S
C1298      C1301   1.445       .  S
C1301      N1303   1.157       .  T
C1302      N1304   1.157       .  T
C1305      C1306   1.406       .  A
C1305      C1310   1.416       .  A
C1306      C1307   1.399       .  A
C1306      H1311   1.084       .  S
C1307      C1308   1.415       .  A
C1307      C1314   1.445       .  S
C1308      C1309   1.406       .  A
C1309      C1310   1.404       .  A
C1309      H1312   1.084       .  S
C1310      C1313   1.444       .  S
C1313      N1315   1.157       .  T
C1314      N1316   1.157       .  T
C1317      C1318   1.406   1_554  A
C1317      C1322   1.411       .  A
C1318      C1319   1.400       .  A
C1318      H1323   1.085   1_556  S
C1319      C1320   1.416       .  A
C1319      C1326   1.445       .  S
C1320      C1321   1.410       .  A
C1321      C1322   1.404   1_556  A
C1321      H1324   1.083       .  S
C1322      C1325   1.444       .  S
C1325      N1327   1.157       .  T
C1326      N1328   1.157       .  T
C1329      C1330   1.403       .  A
C1329      C1334   1.416       .  A
C1330      C1331   1.389       .  A
C1330      H1335   1.086       .  S
C1331      C1332   1.420       .  A
C1331      C1338   1.447       .  S
C1332      C1333   1.408       .  A
C1333      C1334   1.409       .  A
C1333      H1336   1.085       .  S
C1337      N1339   1.157       .  T
C1338      N1340   1.158       .  T
C1341      C1342   1.404       .  A
C1341      C1346   1.413       .  A
C1342      C1343   1.405       .  A
C1342      H1347   1.086       .  S
C1343      C1344   1.419       .  A
C1343      C1350   1.444       .  S
C1344      C1345   1.407       .  A
C1345      C1346   1.395       .  A
C1345      H1348   1.085       .  S
C1346      C1349   1.445       .  S
C1349      N1351   1.157       .  T
C1350      N1352   1.157       .  T
C1353      C1354   1.405   1_554  A
C1353      C1358   1.412       .  A
C1354      C1355   1.394       .  A
C1354      H1359   1.084       .  S
C1355      C1356   1.411       .  A
C1355      C1362   1.445       .  S
C1356      C1357   1.406       .  A
C1357      C1358   1.395   1_556  A
C1357      H1360   1.083       .  S
C1358      C1361   1.445       .  S
C1361      N1363   1.157       .  T
C1362      N1364   1.157       .  T
C1365      C1366   1.407       .  A
C1365      C1370   1.414       .  A
C1366      C1367   1.397   1_556  A
C1366      H1371   1.089       .  S
C1367      C1368   1.414       .  A
C1367      C1374   1.445       .  S
C1368      C1369   1.408   1_554  A
C1369      C1370   1.401       .  A
C1369      H1372   1.089       .  S
C1370      C1373   1.444       .  S
C1373      N1375   1.157       .  T
C1374      N1376   1.157       .  T
C1377      C1378   1.407   1_554  A
C1378      C1379   1.401       .  A
C1378      H1383   1.085       .  S
C1379      C1386   1.444       .  S
C1380      C1381   1.408       .  A
C1381      C1382   1.401   1_556  A
C1381      H1384   1.085       .  S
C1382      C1385   1.444       .  S
C1385      N1387   1.157       .  T
C1386      N1388   1.157       .  T
C1389      C1390   1.407       .  A
C1389      C1394   1.420       .  A
C1390      C1391   1.398       .  A
C1390      H1395   1.086       .  S
C1391      C1392   1.414       .  A
C1391      C1398   1.445       .  S
C1392      C1393   1.404       .  A
C1393      C1394   1.406       .  A
C1393      H1396   1.086       .  S
C1394      C1397   1.444       .  S
C1397      N1399   1.157       .  T
C1398      N1400   1.157       .  T
C1401      C1402   1.404       .  A
C1401      C1406   1.409       .  A
C1402      C1403   1.400       .  A
C1402      H1407   1.086       .  S
C1403      C1404   1.414       .  A
C1403      C1410   1.445       .  S
C1404      C1405   1.410       .  A
C1405      C1406   1.403       .  A
C1405      H1408   1.085       .  S
C1409      N1411   1.157   1_545  T
C1410      N1412   1.157       .  T
C1413      C1414   1.404       .  A
C1413      C1418   1.417       .  A
C1414      C1415   1.395   1_655  A
C1414      H1419   1.085       .  S
C1415      C1416   1.416       .  A
C1415      C1422   1.445       .  S
C1416      C1417   1.407       .  A
C1417      C1418   1.404   1_455  A
C1417      H1420   1.085       .  S
C1418      C1421   1.444       .  S
C1421      N1423   1.157       .  T
C1422      N1424   1.157       .  T
C1425      C1426   1.399       .  A
C1425      C1430   1.421   1_554  A
C1426      C1427   1.392   1_554  A
C1426      H1431   1.085       .  S
C1427      C1428   1.420       .  A
C1427      C1434   1.446       .  S
C1428      C1429   1.398       .  A
C1429      C1430   1.395       .  A
C1429      H1432   1.085       .  S
C1430      C1433   1.445       .  S
C1433      N1435   1.158       .  T
C1434      N1436   1.157       .  T
C1437      C1438   1.408       .  A
C1437      C1442   1.422       .  A
C1438      C1439   1.400       .  A
C1438      H1443   1.085       .  S
C1439      C1440   1.411       .  A
C1439      C1446   1.445       .  S
C1440      C1441   1.402       .  A
C1441      C1442   1.406       .  A
C1441      H1444   1.085       .  S
C1442      C1445   1.444       .  S
C1445      N1447   1.157       .  T
C1446      N1448   1.157       .  T
C1449      C1450   1.402       .  A
C1449      C1454   1.412       .  A
C1450      C1451   1.406       .  A
C1450      H1455   1.085       .  S
C1451      C1452   1.421       .  A
C1451      C1458   1.444       .  S
C1452      C1453   1.407       .  A
C1453      C1454   1.400       .  A
C1453      H1456   1.085       .  S
C1454      C1457   1.445       .  S
C1457      N1459   1.157       .  T
C1458      N1460   1.157       .  T
C1461      C1462   1.406       .  A
C1461      C1466   1.415       .  A
C1462      C1463   1.400   1_655  A
C1462      H1467   1.085       .  S
C1463      C1464   1.415       .  A
C1463      C1470   1.445       .  S
C1464      C1465   1.406       .  A
C1465      C1466   1.403   1_455  A
C1465      H1468   1.084       .  S
C1466      C1469   1.444       .  S
C1469      N1471   1.157       .  T
C1470      N1472   1.157       .  T
C1473      C1474   1.407       .  A
C1474      C1475   1.403   1_556  A
C1474      H1479   1.086       .  S
C1475      C1482   1.444       .  S
C1476      C1477   1.407   1_554  A
C1477      C1478   1.401       .  A
C1477      H1480   1.085       .  S
C1478      C1481   1.444       .  S
C1481      N1483   1.157       .  T
C1482      N1484   1.157       .  T
C1485      C1486   1.401       .  A
C1485      C1490   1.409   1_554  A
C1486      C1487   1.396   1_554  A
C1486      H1491   1.086       .  S
C1487      C1488   1.411       .  A
C1487      C1494   1.445   1_556  S
C1488      C1489   1.402       .  A
C1489      C1490   1.396       .  A
C1489      H1492   1.086       .  S
C1490      C1493   1.444       .  S
C1493      N1495   1.157       .  T
C1494      N1496   1.157       .  T
C1497      C1498   1.403       .  A
C1497      C1502   1.412       .  A
C1498      C1499   1.401       .  A
C1498      H1503   1.084       .  S
C1499      C1500   1.418       .  A
C1499      C1506   1.445       .  S
C1500      C1501   1.410       .  A
C1501      C1502   1.407       .  A
C1501      H1504   1.084       .  S
C1505      N1507   1.157   1_545  T
C1506      N1508   1.157       .  T
C1509      C1510   1.411       .  A
C1509      C1514   1.419       .  A
C1510      C1511   1.406       .  A
C1510      H1515   1.084       .  S
C1511      C1512   1.411       .  A
C1511      C1518   1.444       .  S
C1512      C1513   1.403       .  A
C1513      C1514   1.399       .  A
C1513      H1516   1.085       .  S
C1514      C1517   1.445       .  S
C1517      N1519   1.158       .  T
C1518      N1520   1.157       .  T
C1521      C1522   1.405       .  A
C1521      C1526   1.417       .  A
C1522      C1523   1.396       .  A
C1522      H1527   1.085       .  S
C1523      C1524   1.418       .  A
C1523      C1530   1.444       .  S
C1524      C1525   1.408       .  A
C1525      C1526   1.404       .  A
C1525      H1528   1.084       .  S
C1526      C1529   1.444       .  S
C1529      N1531   1.157       .  T
C1530      N1532   1.157       .  T
C1533      C1534   1.406       .  A
C1533      C1538   1.417       .  A
C1534      C1535   1.406       .  A
C1534      H1539   1.084       .  S
C1535      C1536   1.418       .  A
C1535      C1542   1.444       .  S
C1536      C1537   1.402       .  A
C1537      C1538   1.396       .  A
C1537      H1540   1.085       .  S
C1538      C1541   1.443       .  S
C1541      N1543   1.157       .  T
C1542      N1544   1.157       .  T
C1545      C1546   1.411       .  A
C1545      C1550   1.417       .  A
C1546      C1547   1.402       .  A
C1546      H1551   1.085       .  S
C1547      C1548   1.408       .  A
C1547      C1554   1.444       .  S
C1548      C1549   1.403       .  A
C1549      C1550   1.399       .  A
C1549      H1552   1.086       .  S
C1550      C1553   1.445       .  S
C1553      N1555   1.157       .  T
C1554      N1556   1.157       .  T
C1557      C1558   1.398       .  A
C1557      C1562   1.414       .  A
C1558      C1559   1.398       .  A
C1558      H1563   1.083       .  S
C1559      C1560   1.411       .  A
C1559      C1566   1.441       .  S
C1560      C1561   1.403       .  A
C1561      C1562   1.402       .  A
C1561      H1564   1.086       .  S
C1562      C1565   1.444       .  S
C1565      N1567   1.157       .  T
C1566      N1568   1.156       .  T
C1569      C1570   1.405       .  A
C1569      C1574   1.414       .  A
C1570      C1571   1.403       .  A
C1570      H1575   1.084       .  S
C1571      C1572   1.417       .  A
C1571      C1578   1.444       .  S
C1572      C1573   1.406       .  A
C1573      C1574   1.399       .  A
C1573      H1576   1.084       .  S
C1574      C1577   1.445       .  S
C1577      N1579   1.157       .  T
C1578      N1580   1.157       .  T
C1581      C1582   1.404       .  A
C1581      C1586   1.413       .  A
C1582      C1583   1.398       .  A
C1582      H1587   1.085       .  S
C1583      C1584   1.414       .  A
C1583      C1590   1.444       .  S
C1584      C1585   1.404       .  A
C1585      C1586   1.396       .  A
C1585      H1588   1.086       .  S
C1586      C1589   1.444       .  S
C1589      N1591   1.157       .  T
C1590      N1592   1.157       .  T
C1593      C1594   1.406       .  A
C1593      C1598   1.417       .  A
C1594      C1595   1.404       .  A
C1594      H1599   1.084       .  S
C1595      C1596   1.417       .  A
C1595      C1602   1.444       .  S
C1596      C1597   1.404       .  A
C1597      C1598   1.397       .  A
C1597      H1600   1.084       .  S
C1598      C1601   1.445       .  S
C1601      N1603   1.157       .  T
C1602      N1604   1.157       .  T
C1605      C1606   1.405       .  A
C1605      C1610   1.410       .  A
C1606      C1607   1.399       .  A
C1606      H1611   1.086       .  S
C1607      C1608   1.414       .  A
C1607      C1614   1.444       .  S
C1608      C1609   1.409       .  A
C1609      C1610   1.400       .  A
C1609      H1612   1.085       .  S
C1610      C1613   1.444       .  S
C1613      N1615   1.157       .  T
C1614      N1616   1.157       .  T
C1617      C1618   1.404       .  A
C1617      C1622   1.414       .  A
C1618      C1619   1.398       .  A
C1618      H1623   1.086       .  S
C1619      C1620   1.413       .  A
C1619      C1626   1.445       .  S
C1620      C1621   1.404       .  A
C1621      C1622   1.401       .  A
C1621      H1624   1.086       .  S
C1622      C1625   1.444       .  S
C1625      N1627   1.157       .  T
C1629      C1630   1.401       .  A
C1629      C1634   1.409       .  A
C1630      C1631   1.401       .  A
C1630      H1635   1.085       .  S
C1631      C1632   1.414       .  A
C1631      C1638   1.441       .  S
C1632      C1633   1.410       .  A
C1633      C1634   1.405       .  A
C1633      H1636   1.084       .  S
C1637      N1639   1.157       .  T
C1638      N1640   1.156       .  T
C1641      C1642   1.410       .  A
C1641      C1646   1.417       .  A
C1642      C1643   1.406       .  A
C1642      H1647   1.085       .  S
C1643      C1644   1.411       .  A
C1643      C1650   1.444       .  S
C1644      C1645   1.402       .  A
C1645      C1646   1.399       .  A
C1645      H1648   1.086       .  S
C1646      C1649   1.445       .  S
C1649      N1651   1.157       .  T
C1650      N1652   1.157       .  T
C1653      C1654   1.403       .  A
C1653      C1658   1.409       .  A
C1654      C1655   1.397       .  A
C1654      H1659   1.084       .  S
C1655      C1656   1.409       .  A
C1655      C1662   1.445       .  S
C1656      C1657   1.401       .  A
C1657      C1658   1.396       .  A
C1657      H1660   1.084       .  S
C1658      C1661   1.444       .  S
C1661      N1663   1.157       .  T
C1662      N1664   1.157       .  T
C1665      C1666   1.405       .  A
C1665      C1670   1.418       .  A
C1666      C1667   1.401       .  A
C1666      H1671   1.086       .  S
C1667      C1668   1.418       .  A
C1667      C1674   1.445       .  S
C1668      C1669   1.406       .  A
C1669      C1670   1.404       .  A
C1669      H1672   1.085       .  S
C1670      C1673   1.444       .  S
C1673      N1675   1.157       .  T
C1674      N1676   1.157   1_565  T
C1677      C1678   1.406       .  A
C1677      C1682   1.412       .  A
C1678      C1679   1.396       .  A
C1678      H1683   1.085       .  S
C1679      C1680   1.412       .  A
C1679      C1686   1.445       .  S
C1680      C1681   1.407       .  A
C1681      C1682   1.400       .  A
C1681      H1684   1.085       .  S
C1682      C1685   1.445       .  S
C1685      N1687   1.157       .  T
C1686      N1688   1.157       .  T
C1689      C1690   1.407       .  A
C1690      C1691   1.403       .  A
C1690      H1695   1.086       .  S
C1691      C1698   1.444       .  S
C1692      C1693   1.409       .  A
C1693      C1694   1.402       .  A
C1693      H1696   1.086       .  S
C1694      C1697   1.443       .  S
C1697      N1699   1.157       .  T
C1698      N1700   1.157       .  T
C1701      C1702   1.404       .  A
C1701      C1706   1.411       .  A
C1702      C1703   1.401       .  A
C1702      H1707   1.086       .  S
C1703      C1704   1.417       .  A
C1703      C1710   1.445       .  S
C1704      C1705   1.411       .  A
C1705      C1706   1.406       .  A
C1705      H1708   1.085       .  S
C1706      C1709   1.444       .  S
C1709      N1711   1.157       .  T
C1710      N1712   1.157       .  T
C1713      C1714   1.403       .  A
C1713      C1718   1.410       .  A
C1714      C1715   1.402       .  A
C1714      H1719   1.085       .  S
C1715      C1716   1.417       .  A
C1715      C1722   1.445       .  S
C1716      C1717   1.409       .  A
C1717      C1718   1.405       .  A
C1717      H1720   1.084       .  S
C1718      C1721   1.444       .  S
C1721      N1723   1.157       .  T
C1722      N1724   1.158       .  T
C1725      C1726   1.408       .  A
C1725      C1730   1.418       .  A
C1726      C1727   1.406       .  A
C1726      H1731   1.084       .  S
C1727      C1728   1.417       .  A
C1727      C1734   1.444       .  S
C1728      C1729   1.405       .  A
C1729      C1730   1.396       .  A
C1729      H1732   1.085       .  S
C1730      C1733   1.445       .  S
C1733      N1735   1.157       .  T
C1734      N1736   1.157       .  T
C1737      C1738   1.406       .  A
C1737      C1742   1.415       .  A
C1738      C1739   1.405   1_655  A
C1738      H1743   1.084       .  S
C1739      C1740   1.417       .  A
C1739      C1746   1.444       .  S
C1740      C1741   1.406       .  A
C1741      C1742   1.399   1_455  A
C1741      H1744   1.084       .  S
C1742      C1745   1.445       .  S
C1745      N1747   1.157       .  T
C1746      N1748   1.157       .  T
C1749      C1750   1.397       .  A
C1749      C1754   1.418       .  A
C1750      C1751   1.394       .  A
C1750      H1755   1.086       .  S
C1751      C1752   1.420       .  A
C1751      C1758   1.445       .  S
C1752      C1753   1.398       .  A
C1753      C1754   1.398       .  A
C1753      H1756   1.086       .  S
C1754      C1757   1.445       .  S
C1757      N1759   1.157       .  T
C1758      N1760   1.157       .  T
C1761      C1762   1.410       .  A
C1761      C1766   1.418       .  A
C1762      C1763   1.405       .  A
C1762      H1767   1.085       .  S
C1763      C1764   1.411       .  A
C1763      C1770   1.444       .  S
C1764      C1765   1.403       .  A
C1765      C1766   1.400       .  A
C1765      H1768   1.085       .  S
C1766      C1769   1.445       .  S
C1769      N1771   1.157       .  T
C1770      N1772   1.157       .  T
C1773      C1774   1.411       .  A
C1773      C1778   1.415       .  A
C1774      C1775   1.407       .  A
C1774      H1779   1.083       .  S
C1775      C1776   1.410       .  A
C1776      C1777   1.403       .  A
C1777      C1778   1.400       .  A
C1777      H1780   1.084       .  S
C1778      C1781   1.445       .  S
C1781      N1783   1.157       .  T
C1782      N1784   1.157       .  T
C1785      C1786   1.405       .  A
C1785      C1790   1.412       .  A
C1786      C1787   1.399       .  A
C1786      H1791   1.085       .  S
C1787      C1788   1.412       .  A
C1787      C1794   1.445       .  S
C1788      C1789   1.405       .  A
C1789      C1790   1.402       .  A
C1789      H1792   1.085       .  S
C1790      C1793   1.444       .  S
C1793      N1795   1.157       .  T
C1794      N1796   1.157       .  T
C1797      C1798   1.406       .  A
C1797      C1802   1.416       .  A
C1798      C1799   1.405   1_655  A
C1798      H1803   1.085       .  S
C1799      C1800   1.417       .  A
C1799      C1806   1.444       .  S
C1800      C1801   1.405       .  A
C1801      C1802   1.400   1_455  A
C1801      H1804   1.085       .  S
C1802      C1805   1.445       .  S
C1805      N1807   1.157       .  T
C1806      N1808   1.157       .  T
C1809      C1810   1.410       .  A
C1810      C1811   1.401       .  A
C1810      H1815   1.086       .  S
C1811      C1818   1.444       .  S
C1812      C1813   1.406       .  A
C1813      C1814   1.403       .  A
C1813      H1816   1.085       .  S
C1814      C1817   1.444       .  S
C1817      N1819   1.157       .  T
C1818      N1820   1.157       .  T
C1821      C1822   1.402       .  A
C1821      C1826   1.409       .  A
C1822      C1823   1.396       .  A
C1822      H1827   1.084       .  S
C1823      C1824   1.410       .  A
C1823      C1830   1.444       .  S
C1824      C1825   1.402       .  A
C1825      C1826   1.395       .  A
C1825      H1828   1.085       .  S
C1826      C1829   1.444       .  S
C1829      N1831   1.157       .  T
C1830      N1832   1.157       .  T
C1833      C1834   1.404       .  A
C1833      C1838   1.414       .  A
C1834      C1835   1.406       .  A
C1835      C1836   1.420       .  A
C1835      C1842   1.443       .  S
C1836      C1837   1.407       .  A
C1837      C1838   1.398       .  A
C1837      H1840   1.085       .  S
C1838      C1841   1.446       .  S
C1841      N1843   1.157       .  T
C1842      N1844   1.157       .  T
C1845      C1846   1.402       .  A
C1845      C1850   1.412       .  A
C1846      C1847   1.407       .  A
C1846      H1851   1.086       .  S
C1847      C1848   1.422       .  A
C1847      C1854   1.444       .  S
C1848      C1849   1.406       .  A
C1849      C1850   1.401       .  A
C1849      H1852   1.086       .  S
C1850      C1853   1.445       .  S
C1853      N1855   1.157       .  T
C1854      N1856   1.158       .  T
