geometry optimzed in LAMMPS
_audit_creation_date              2020-12-01 
_audit_creation_method            'lammps2cif' 
_symmetry_space_group_name_H-M    'P1' 
_symmetry_Int_Tables_number       1 
_symmetry_cell_setting            triclinic 
loop_ 
_symmetry_equiv_pos_as_xyz 
  x,y,z 
_cell_length_a                    23.13129857 
_cell_length_b                    85.60947652192205 
_cell_length_c                    43.619637702443946 
_cell_angle_alpha                 89.99932944605168 
_cell_angle_beta                  90.02923839073755 
_cell_angle_gamma                 90.02006946738382 
loop_ 
_atom_site_label 
_atom_site_type_symbol 
_atom_site_fract_x 
_atom_site_fract_y 
_atom_site_fract_z 
_atom_site_charge 
O1          O  0.99970118  0.95650953  0.49508597    -0.71500
O2          O  0.04868268  0.91238433  0.49407462    -0.72500
O3          O  0.01296225  0.93318519  0.54070315    -0.61100
O4          O  0.04157724  0.93596263  0.44867289    -0.69600
O5          O  0.13138877  0.94317179  0.45886131    -0.69100
O6          O  0.10380298  0.94034582  0.54794405    -0.60400
O7          O  0.13990709  0.91886090  0.50271514    -0.72900
O8          O  0.08929375  0.96430372  0.50398343    -0.71700
Cu9        Cu  0.02257497  0.93428166  0.49427481     1.04600
Cu10       Cu  0.11921388  0.94194981  0.50362216     1.04300
C11         C  0.03557847  0.96748327  0.49998378     0.94600
C12         C  0.10096709  0.90840298  0.49853344     0.93800
C13         C  0.05506452  0.93632712  0.55886677     0.85900
C14         C  0.09227992  0.93983688  0.43942353     0.92200
O15         O  0.20548650  0.83788058  0.49598134    -0.71500
O16         O  0.24942659  0.79329950  0.49508539    -0.72500
O17         O  0.20975946  0.81470437  0.44993084    -0.61100
O18         O  0.24003992  0.81625648  0.54165579    -0.69600
O19         O  0.14872851  0.80966841  0.54923804    -0.69100
O20         O  0.11903494  0.80816927  0.45990190    -0.60400
O21         O  0.15907929  0.78613386  0.50390025    -0.72900
O22         O  0.11395754  0.83189512  0.50474113    -0.71700
Cu23       Cu  0.22934709  0.81574300  0.49534440     1.04600
Cu24       Cu  0.13205608  0.80871341  0.50474498     1.04300
C25         C  0.15345068  0.84215704  0.50026854     0.94600
C26         C  0.21229070  0.78256817  0.49950313     0.93800
C27         C  0.15859259  0.81137759  0.44063570     0.85900
C28         C  0.19819543  0.81320013  0.55999419     0.92200
O29         O  0.20321352  0.91255890  0.25575466    -0.71500
O30         O  0.24587735  0.95727898  0.25563090    -0.72500
O31         O  0.20514391  0.93615984  0.30134386    -0.61100
O32         O  0.23763951  0.93394131  0.20971674    -0.69600
O33         O  0.14587046  0.94008171  0.20176375    -0.69100
O34         O  0.11482399  0.94268044  0.29053683    -0.60400
O35         O  0.15586230  0.96433106  0.24566174    -0.72900
O36         O  0.11136151  0.91821625  0.24676679    -0.71700
Cu37       Cu  0.22612473  0.93478728  0.25601072     1.04600
Cu38       Cu  0.12881660  0.94157088  0.24590006     1.04300
C39         C  0.15147263  0.90810090  0.25116207     0.94600
C40         C  0.20907040  0.96796675  0.25020725     0.93800
C41         C  0.15380037  0.93962139  0.31021156     0.85900
C42         C  0.19552427  0.93662026  0.19129291     0.92200
O43         O  0.05316710  0.83700768  0.25591467    -0.71500
O44         O  0.00924278  0.79251033  0.25640848    -0.72500
O45         O  0.04875133  0.81383431  0.30178397    -0.61100
O46         O  0.01921977  0.81561421  0.21011607    -0.69600
O47         O  0.11049709  0.80900171  0.20252016    -0.69100
O48         O  0.13919134  0.80715941  0.29192031    -0.60400
O49         O  0.09928083  0.78513823  0.24755603    -0.72900
O50         O  0.14482580  0.83118905  0.24726268    -0.71700
Cu51       Cu  0.02949009  0.81492000  0.25636589     1.04600
Cu52       Cu  0.12665279  0.80785087  0.24702568     1.04300
C53         C  0.10503057  0.84140021  0.25159790     0.94600
C54         C  0.04592019  0.78167744  0.25200020     0.93800
C55         C  0.09976118  0.81045033  0.31120912     0.85900
C56         C  0.06123776  0.81274012  0.19179243     0.92200
O57         O  0.23694817  0.45726913  0.74255574    -0.71500
O58         O  0.19415400  0.41246260  0.74267041    -0.72500
O59         O  0.22663264  0.43398951  0.69636799    -0.61100
O60         O  0.19871683  0.43595122  0.78825773    -0.69600
O61         O  0.10804284  0.44245652  0.77854375    -0.69100
O62         O  0.13514601  0.44051840  0.68906531    -0.60400
O63         O  0.10233439  0.41825265  0.73400168    -0.72900
O64         O  0.14660346  0.46452665  0.73390476    -0.71700
Cu65       Cu  0.21725736  0.43473358  0.74274093     1.04600
Cu66       Cu  0.11983116  0.44168461  0.73360392     1.04300
C67         C  0.19991214  0.46805900  0.73840425     0.94600
C68         C  0.14222992  0.40806143  0.73840784     0.93800
C69         C  0.18434256  0.43687583  0.67818039     0.85900
C70         C  0.14780324  0.43936114  0.79778507     0.92200
O71         O  0.04364462  0.33741135  0.73969490    -0.71500
O72         O  0.99670047  0.29286249  0.74080753    -0.72500
O73         O  0.03753547  0.31414422  0.78598117    -0.61100
O74         O  0.00818488  0.31580871  0.69440962    -0.69600
O75         O  0.09959480  0.30917110  0.68693024    -0.69100
O76         O  0.12751597  0.30690489  0.77639038    -0.60400
O77         O  0.08662008  0.28528587  0.73187282    -0.72900
O78         O  0.13553367  0.33109780  0.73220670    -0.71700
Cu79       Cu  0.01842152  0.31528724  0.74055513     1.04600
Cu80       Cu  0.11550563  0.30785239  0.73154334     1.04300
C81         C  0.09608005  0.34146923  0.73581868     0.94600
C82         C  0.03313544  0.28196117  0.73633016     0.93800
C83         C  0.08798248  0.31027596  0.79555350     0.85900
C84         C  0.05017815  0.31278300  0.67618619     0.92200
O85         O  0.99839024  0.45583502  0.98203948    -0.71500
O86         O  0.04040859  0.41118171  0.98130395    -0.72500
O87         O  0.00664113  0.43238091  0.02751628    -0.61100
O88         O  0.03759213  0.43484478  0.93612814    -0.69600
O89         O  0.12861654  0.44091606  0.94662372    -0.69100
O90         O  0.09820958  0.43861137  0.03591619    -0.60400
O91         O  0.13213678  0.41668500  0.99082446    -0.72900
O92         O  0.08883804  0.46278892  0.99141227    -0.71700
Cu93       Cu  0.01766094  0.43336799  0.98139204     1.04600
Cu94       Cu  0.11519445  0.43999913  0.99148425     1.04300
C95         C  0.03562695  0.46646355  0.98709624     0.94600
C96         C  0.09196033  0.40663438  0.98606802     0.93800
C97         C  0.04836874  0.43507650  0.04614961     0.85900
C98         C  0.08899691  0.43807602  0.92713419     0.92200
O99         O  0.23150799  0.29087110  0.98116023    -0.71500
O100        O  0.18916846  0.33549099  0.98000925    -0.72500
O101        O  0.22184978  0.31438522  0.02635336    -0.61100
O102        O  0.19394222  0.31194580  0.93492593    -0.69600
O103        O  0.10279309  0.30567095  0.94444500    -0.69100
O104        O  0.13029628  0.30801374  0.03409214    -0.60400
O105        O  0.09728275  0.32986306  0.98873400    -0.72900
O106        O  0.14094961  0.28384117  0.98989620    -0.71700
Cu107      Cu  0.21221802  0.31334064  0.98026831     1.04600
Cu108      Cu  0.11457216  0.30657931  0.98951783     1.04300
C109        C  0.19427360  0.28021291  0.98603053     0.94600
C110        C  0.13744735  0.33996923  0.98448986     0.93800
C111        C  0.17972052  0.31171987  0.04469939     0.85900
C112        C  0.14289962  0.30874795  0.92537040     0.92200
O113        O  0.21290395  0.16830341  0.48657688    -0.71500
O114        O  0.16824737  0.21429631  0.48640970    -0.72500
O115        O  0.20752885  0.19234373  0.53105617    -0.61100
O116        O  0.17886168  0.19036255  0.44190249    -0.69600
O117        O  0.08716867  0.18400396  0.44944764    -0.69100
O118        O  0.11717903  0.18557999  0.54098970    -0.60400
O119        O  0.07800448  0.20720303  0.49566623    -0.72900
O120        O  0.12115581  0.16230122  0.49488106    -0.71700
Cu121      Cu  0.19501885  0.19158402  0.48624201     1.04600
Cu122      Cu  0.09768297  0.18458921  0.49560999     1.04300
C123        C  0.17321916  0.15802331  0.49051578     0.94600
C124        C  0.11504110  0.21792637  0.49070219     0.93800
C125        C  0.16819303  0.18900552  0.55035856     0.85900
C126        C  0.12942466  0.18676909  0.43122888     0.92200
O127        O  0.23307994  0.03534035  0.49011011    -0.71500
O128        O  0.18575721  0.08110392  0.48832896    -0.72500
O129        O  0.22256695  0.05878276  0.44458020    -0.61100
O130        O  0.19157817  0.05737249  0.53366252    -0.69600
O131        O  0.28165873  0.06429149  0.54393763    -0.69100
O132        O  0.31369286  0.06552835  0.45281230    -0.60400
O133        O  0.27692023  0.08733047  0.49745592    -0.72900
O134        O  0.32297510  0.04272946  0.49953833    -0.71700
Cu135      Cu  0.20508578  0.05788746  0.48887891     1.04600
Cu136      Cu  0.30192092  0.06519368  0.49878963     1.04300
C137        C  0.28629877  0.03188817  0.49493757     0.94600
C138        C  0.22490652  0.09150482  0.49251246     0.93800
C139        C  0.27227871  0.06239180  0.43428563     0.85900
C140        C  0.23072388  0.06070566  0.55311096     0.92200
O141        O  0.21450159  0.08215112  0.74574158    -0.71500
O142        O  0.17249638  0.03597624  0.74675356    -0.72500
O143        O  0.21148783  0.05781944  0.70174184    -0.61100
O144        O  0.18130151  0.06014182  0.79070720    -0.69600
O145        O  0.08934814  0.06603598  0.78265138    -0.69100
O146        O  0.12050167  0.06392157  0.69134450    -0.60400
O147        O  0.08188668  0.04261090  0.73707740    -0.72900
O148        O  0.12250731  0.08756152  0.73672253    -0.71700
Cu149      Cu  0.19815666  0.05878659  0.74648582     1.04600
Cu150      Cu  0.10041416  0.06521701  0.73655373     1.04300
C151        C  0.17408072  0.09217121  0.74136524     0.94600
C152        C  0.11946756  0.03210819  0.74249924     0.93800
C153        C  0.17189374  0.06072845  0.68230400     0.85900
C154        C  0.13142071  0.06344457  0.80110859     0.92200
O155        O  0.18038111  0.16921244  0.74416235    -0.71500
O156        O  0.22759145  0.21516592  0.74248801    -0.72500
O157        O  0.18699460  0.19285480  0.69876410    -0.61100
O158        O  0.21529664  0.19154757  0.78834053    -0.69600
O159        O  0.30666847  0.18481000  0.78068928    -0.69100
O160        O  0.27772954  0.18617547  0.68917386    -0.60400
O161        O  0.31778126  0.20763769  0.73409713    -0.72900
O162        O  0.27193906  0.16326501  0.73548903    -0.71700
Cu163      Cu  0.19932652  0.19250021  0.74370770     1.04600
Cu164      Cu  0.29659991  0.18528447  0.73454804     1.04300
C165        C  0.22008110  0.15894297  0.74015334     0.94600
C166        C  0.28113443  0.21850792  0.73822099     0.93800
C167        C  0.22668225  0.18943749  0.67969722     0.85900
C168        C  0.26460109  0.18772608  0.79893108     0.92200
O169        O  0.19858404  0.58286684  0.98852926    -0.71500
O170        O  0.24157198  0.53694743  0.98962846    -0.72500
O171        O  0.20200454  0.55913752  0.03332644    -0.61100
O172        O  0.23293733  0.56060890  0.94448344    -0.69600
O173        O  0.32472890  0.56682180  0.95222258    -0.69100
O174        O  0.29227724  0.56559267  0.04414824    -0.60400
O175        O  0.33225814  0.54372482  0.99902489    -0.72900
O176        O  0.29023039  0.58872312  0.99754647    -0.71700
Cu177      Cu  0.21576814  0.55964358  0.98870224     1.04600
Cu178      Cu  0.31318554  0.56640206  0.99860951     1.04300
C179        C  0.23831365  0.59307017  0.99290623     0.94600
C180        C  0.29452045  0.53316086  0.99418277     0.93800
C181        C  0.24068564  0.56239555  0.05304114     0.85900
C182        C  0.28253562  0.56405698  0.93388531     0.92200
O183        O  0.09900358  0.68539066  0.95984415    -0.71500
O184        O  0.12828715  0.68619150  0.05151746    -0.72500
O185        O  0.08819879  0.70792478  0.00721143    -0.61100
O186        O  0.13442637  0.66344142  0.00433008    -0.69600
O187        O  0.22572149  0.66980289  0.99592021    -0.69100
O188        O  0.17848143  0.71538524  0.99876106    -0.60400
O189        O  0.21874762  0.69311787  0.04222382    -0.72900
O190        O  0.19014604  0.69233660  0.95263664    -0.71700
Cu191      Cu  0.10933930  0.68551374  0.00607148     1.04600
Cu192      Cu  0.20643007  0.69292828  0.99716200     1.04300
C193        C  0.14098061  0.68861485  0.94173059     0.94600
C194        C  0.17892634  0.68974286  0.06126269     0.93800
C195        C  0.12513638  0.71875852  0.00323116     0.85900
C196        C  0.18647256  0.65936482  0.99927638     0.92200
O197        O  0.09001219  0.56671657  0.28226849    -0.71500
O198        O  0.12231786  0.56590106  0.19039959    -0.72500
O199        O  0.08073645  0.54400112  0.23452408    -0.61100
O200        O  0.12533154  0.58862071  0.23778639    -0.69600
O201        O  0.21639223  0.58252201  0.24748475    -0.69100
O202        O  0.17063732  0.53645462  0.24332088    -0.60400
O203        O  0.21277046  0.55933037  0.20100263    -0.72900
O204        O  0.18089896  0.55964268  0.28990392    -0.71700
Cu205      Cu  0.10140523  0.56648299  0.23586583     1.04600
Cu206      Cu  0.19827028  0.55919409  0.24568062     1.04300
C207        C  0.13197875  0.56365966  0.30057987     0.94600
C208        C  0.17394231  0.56278797  0.18149512     0.93800
C209        C  0.11731529  0.53307039  0.23838981     0.85900
C210        C  0.17687770  0.59286833  0.24361562     0.92200
O211        O  0.28267444  0.68683893  0.20133075    -0.71500
O212        O  0.31101886  0.68558458  0.29279866    -0.72500
O213        O  0.27749556  0.66370240  0.24766041    -0.61100
O214        O  0.32032460  0.70858196  0.24630334    -0.69600
O215        O  0.22996719  0.71567269  0.25555142    -0.69100
O216        O  0.18546163  0.66962827  0.25534621    -0.60400
O217        O  0.21913668  0.69169553  0.30057363    -0.72900
O218        O  0.19198339  0.69361825  0.21054001    -0.71700
Cu219      Cu  0.30098318  0.68598673  0.24674020     1.04600
Cu220      Cu  0.20340283  0.69291072  0.25578151     1.04300
C221        C  0.23201657  0.69029252  0.19155642     0.94600
C222        C  0.26894724  0.68829440  0.31113085     0.93800
C223        C  0.22532031  0.65939247  0.25157288     0.85900
C224        C  0.28306190  0.71928997  0.25082402     0.92200
O225        O  0.08015682  0.95700538  0.75574920    -0.71500
O226        O  0.36733416  0.91254594  0.75642233    -0.72500
O227        O  0.07219907  0.93382080  0.70932964    -0.61100
O228        O  0.37077035  0.93608462  0.80149661    -0.69600
O229        O  0.27978397  0.94232316  0.79152016    -0.69100
O230        O  0.30726111  0.93966998  0.70230516    -0.60400
O231        O  0.27519859  0.91801311  0.74776875    -0.72900
O232        O  0.31795626  0.96404582  0.74603835    -0.71700
Cu233      Cu  0.06214967  0.93428333  0.75558035     1.04600
Cu234      Cu  0.29185751  0.94128988  0.74668565     1.04300
C235        C  0.04215050  0.96750995  0.75106928     0.94600
C236        C  0.31568354  0.90800522  0.75197963     0.93800
C237        C  0.35652402  0.93592384  0.69166354     0.85900
C238        C  0.31944527  0.93918379  0.81078483     0.92200
O239        O  0.27868693  0.80925290  0.70250415    -0.71500
O240        O  0.30837250  0.80736622  0.79230278    -0.72500
O241        O  0.27008133  0.78515137  0.74743958    -0.61100
O242        O  0.31200644  0.83135069  0.74747911    -0.69600
O243        O  0.21995783  0.83676984  0.75607468    -0.69100
O244        O  0.17968826  0.79202370  0.75682632    -0.60400
O245        O  0.21753336  0.81369084  0.80201055    -0.72900
O246        O  0.18671973  0.81514890  0.71063226    -0.71700
Cu247      Cu  0.29554793  0.80802068  0.74714472     1.04600
Cu248      Cu  0.19789971  0.81456484  0.75672014     1.04300
C249        C  0.22872834  0.81263559  0.69213599     0.94600
C250        C  0.26868290  0.81058983  0.81154591     0.93800
C251        C  0.21705809  0.78139759  0.75201970     0.85900
C252        C  0.27156758  0.84136835  0.75170039     0.92200
O253        O  0.29753666  0.94297135  0.95897365    -0.71500
O254        O  0.26882387  0.94266613  0.04809702    -0.72500
O255        O  0.30580581  0.92008990  0.00534354    -0.61100
O256        O  0.25524498  0.96541229  0.00128902    -0.69600
O257        O  0.16577300  0.95742768  0.99263074    -0.69100
O258        O  0.21458696  0.91315895  0.99757330    -0.60400
O259        O  0.17808039  0.93531343  0.04107188    -0.72900
O260        O  0.20808278  0.93525134  0.94931666    -0.71700
Cu261      Cu  0.28488855  0.94309271  0.00367766     1.04600
Cu262      Cu  0.18838763  0.93507674  0.99481164     1.04300
C263        C  0.25881801  0.93892062  0.93984941     0.94600
C264        C  0.22013681  0.93864930  0.05910802     0.93800
C265        C  0.26711014  0.90947468  0.00236887     0.85900
C266        C  0.20179821  0.96851740  0.99633035     0.92200
O267        O  0.08078184  0.79336422  0.99543042    -0.71500
O268        O  0.37080277  0.83898814  0.99790044    -0.72500
O269        O  0.07348007  0.81668953  0.04118842    -0.61100
O270        O  0.37535393  0.81597853  0.95114519    -0.69600
O271        O  0.28416492  0.80967508  0.96047004    -0.69100
O272        O  0.31189746  0.81068281  0.05019404    -0.60400
O273        O  0.27890409  0.83317396  0.00621108    -0.72900
O274        O  0.32195281  0.78718715  0.00434024    -0.71700
Cu275      Cu  0.06188264  0.81583271  0.99506901     1.04600
Cu276      Cu  0.29604323  0.80993288  0.00555896     1.04300
C277        C  0.04348025  0.78275252  0.00050370     0.94600
C278        C  0.31890821  0.84336222  0.00244169     0.93800
C279        C  0.36145421  0.81411485  0.06099108     0.85900
C280        C  0.32438471  0.81275808  0.94146467     0.92200
O281        O  0.33904534  0.53529108  0.74361208    -0.71500
O282        O  0.05174088  0.58136099  0.74832846    -0.72500
O283        O  0.35340998  0.55832389  0.79011509    -0.61100
O284        O  0.04722016  0.55818904  0.70145101    -0.69600
O285        O  0.28948634  0.56493578  0.69131322    -0.69100
O286        O  0.26236331  0.56546672  0.78357971    -0.60400
O287        O  0.29622697  0.58747006  0.73899835    -0.72900
O288        O  0.24904929  0.54305101  0.73555491    -0.71700
Cu289      Cu  0.03253712  0.55815948  0.74624042     1.04600
Cu290      Cu  0.27112004  0.56543897  0.73705853     1.04300
C291        C  0.28546664  0.53205897  0.73905632     0.94600
C292        C  0.01267116  0.59184599  0.74482161     0.93800
C293        C  0.30490985  0.56226567  0.80141900     0.85900
C294        C  0.34019222  0.56139558  0.68160661     0.92200
O295        O  0.08052189  0.71397452  0.75211646    -0.71500
O296        O  0.02874004  0.66864482  0.75489053    -0.72500
O297        O  0.06551708  0.69110225  0.79836147    -0.61100
O298        O  0.03868410  0.69169778  0.70866665    -0.69600
O299        O  0.12924050  0.68450208  0.69973030    -0.69100
O300        O  0.15632674  0.68368287  0.79167085    -0.60400
O301        O  0.11983454  0.66172808  0.74712693    -0.72900
O302        O  0.17040600  0.70609098  0.74439261    -0.71700
Cu303      Cu  0.05024999  0.69164946  0.75372607     1.04600
Cu304      Cu  0.14708538  0.68374126  0.74540889     1.04300
C305        C  0.13426875  0.71713686  0.74823109     0.94600
C306        C  0.06718097  0.65799058  0.75160222     0.93800
C307        C  0.11434229  0.68726203  0.80951628     0.85900
C308        C  0.07870786  0.68810279  0.68992042     0.92200
O309        O  0.12363577  0.56463970  0.54335115    -0.71500
O310        O  0.15261200  0.56691166  0.45114564    -0.72500
O311        O  0.12166260  0.58828630  0.49783206    -0.61100
O312        O  0.16108767  0.54325338  0.49672174    -0.69600
O313        O  0.07008324  0.53670866  0.48792573    -0.69100
O314        O  0.02942978  0.58299808  0.48926444    -0.60400
O315        O  0.06049048  0.56098010  0.44407168    -0.72900
O316        O  0.03244349  0.55871354  0.53320732    -0.71700
Cu317      Cu  0.14301079  0.56592496  0.49764053     1.04600
Cu318      Cu  0.04500555  0.55960557  0.48839478     1.04300
C319        C  0.07205388  0.56168714  0.55258741     0.94600
C320        C  0.10971307  0.56445590  0.43307582     0.93800
C321        C  0.07011010  0.59296424  0.49353792     0.85900
C322        C  0.12321994  0.53278053  0.49153114     0.92200
O323        O  0.26073091  0.68460563  0.46161655    -0.71500
O324        O  0.29351958  0.68605335  0.55286401    -0.72500
O325        O  0.25410670  0.70754729  0.50809872    -0.61100
O326        O  0.29569077  0.66280501  0.50667888    -0.69600
O327        O  0.06413346  0.66998855  0.49496457    -0.69100
O328        O  0.34457185  0.71448016  0.49891967    -0.60400
O329        O  0.05921601  0.69354290  0.54113971    -0.72900
O330        O  0.35198149  0.69105787  0.45333547    -0.71700
Cu331      Cu  0.27289238  0.68505017  0.50770571     1.04600
Cu332      Cu  0.04501542  0.69324548  0.49606818     1.04300
C333        C  0.30207984  0.68764710  0.44299191     0.94600
C334        C  0.02026488  0.68999907  0.56059183     0.93800
C335        C  0.29154707  0.71818259  0.50348659     0.85900
C336        C  0.02462387  0.65964688  0.49884726     0.92200
O337        O  0.29359019  0.44188897  0.44620236    -0.71500
O338        O  0.26224405  0.44071529  0.53550125    -0.72500
O339        O  0.29770823  0.41823316  0.49176590    -0.61100
O340        O  0.25300519  0.46426452  0.48985073    -0.69600
O341        O  0.16264818  0.45723148  0.48060944    -0.69100
O342        O  0.20625043  0.41231170  0.48263251    -0.60400
O343        O  0.17080913  0.43425117  0.52745340    -0.72900
O344        O  0.20306095  0.43536203  0.43596600    -0.71700
Cu345      Cu  0.27976212  0.44154186  0.49110181     1.04600
Cu346      Cu  0.18254162  0.43459994  0.48128591     1.04300
C347        C  0.25437057  0.43857941  0.42676633     0.94600
C348        C  0.21257644  0.43714537  0.54593861     0.93800
C349        C  0.25805771  0.40796008  0.48762425     0.85900
C350        C  0.19987446  0.46793730  0.48533115     0.92200
O351        O  0.02582919  0.33782586  0.48118718    -0.71500
O352        O  0.07014088  0.29305339  0.47825331    -0.72500
O353        O  0.02879036  0.31502487  0.43389603    -0.61100
O354        O  0.06163408  0.31570325  0.52557331    -0.69600
O355        O  0.30246199  0.30868246  0.53403237    -0.69100
O356        O  0.27360673  0.30705365  0.44450667    -0.60400
O357        O  0.98014885  0.28580727  0.48775819    -0.72900
O358        O  0.26832006  0.33096122  0.48973351    -0.71700
Cu359      Cu  0.04978111  0.31560363  0.47931643     1.04600
Cu360      Cu  0.28607223  0.30763625  0.48954372     1.04300
C361        C  0.30801935  0.34125116  0.48589802     0.94600
C362        C  0.03336808  0.28226794  0.48318313     0.93800
C363        C  0.31332115  0.31022403  0.42526544     0.85900
C364        C  0.02009039  0.31256661  0.54405827     0.92200
O365        O  0.01675681  0.41367604  0.24154554    -0.71500
O366        O  0.06593236  0.45796384  0.24319512    -0.72500
O367        O  0.02092977  0.43680720  0.28759999    -0.61100
O368        O  0.05651438  0.43472456  0.19680441    -0.69600
O369        O  0.30175155  0.44144015  0.18850264    -0.69100
O370        O  0.27387538  0.44228795  0.27807472    -0.60400
O371        O  0.31273301  0.46481792  0.23446743    -0.72900
O372        O  0.26775539  0.41886165  0.23222658    -0.71700
Cu373      Cu  0.04306500  0.43560506  0.24270916     1.04600
Cu374      Cu  0.28590289  0.44212504  0.23307646     1.04300
C375        C  0.30742842  0.40856087  0.23586997     0.94600
C376        C  0.03039791  0.46903290  0.23822947     0.93800
C377        C  0.31350534  0.43884838  0.29718745     0.85900
C378        C  0.01575089  0.43776699  0.17781744     0.92200
O379        O  0.20580827  0.33763295  0.24009887    -0.71500
O380        O  0.16234846  0.29286754  0.24201579    -0.72500
O381        O  0.20336854  0.31446953  0.28656959    -0.61100
O382        O  0.16966108  0.31583389  0.19527814    -0.69600
O383        O  0.26087753  0.30932886  0.18683222    -0.69100
O384        O  0.29360746  0.30787712  0.27600921    -0.60400
O385        O  0.25234881  0.28569636  0.23236808    -0.72900
O386        O  0.29711890  0.33169625  0.23061876    -0.71700
Cu387      Cu  0.18219328  0.31540436  0.24136218     1.04600
Cu388      Cu  0.27915874  0.30840225  0.23114545     1.04300
C389        C  0.25754204  0.34196063  0.23493116     0.94600
C390        C  0.19928644  0.28210975  0.23730898     0.93800
C391        C  0.25456724  0.31102480  0.29562937     0.85900
C392        C  0.21102725  0.31288697  0.17660854     0.92200
O393        O  0.14394097  0.06608735  0.95129688    -0.71500
O394        O  0.11475786  0.06517005  0.04302580    -0.72500
O395        O  0.15435423  0.04351366  0.99847748    -0.61100
O396        O  0.10918100  0.08805261  0.99576176    -0.69600
O397        O  0.01772417  0.08179206  0.98721335    -0.69100
O398        O  0.06433189  0.03595200  0.99000894    -0.60400
O399        O  0.02426823  0.05831870  0.03346449    -0.72900
O400        O  0.05285288  0.05915639  0.94387015    -0.71700
Cu401      Cu  0.13365420  0.06592714  0.99748447     1.04600
Cu402      Cu  0.03659161  0.05854952  0.98840756     1.04300
C403        C  0.10210343  0.06286213  0.93307752     0.94600
C404        C  0.06406758  0.06157672  0.05262326     0.93800
C405        C  0.11772666  0.03259993  0.99454616     0.85900
C406        C  0.05723590  0.09217688  0.99055710     0.92200
O407        O  0.00647298  0.21511933  0.98711642    -0.71500
O408        O  0.04939777  0.16896608  0.98458246    -0.72500
O409        O  0.01473546  0.19183206  0.94128317    -0.61100
O410        O  0.04656323  0.19241259  0.03063497    -0.69600
O411        O  0.95571327  0.18607797  0.04074880    -0.69100
O412        O  0.92329445  0.18548896  0.94921435    -0.60400
O413        O  0.95775539  0.16328282  0.99368779    -0.72900
O414        O  0.91623292  0.20804020  0.99636291    -0.71700
Cu415      Cu  0.03251596  0.19233125  0.98566595     1.04600
Cu416      Cu  0.93516884  0.18553272  0.99539821     1.04300
C417        C  0.95326079  0.21874625  0.99146749     0.94600
C418        C  0.00930652  0.15880427  0.98859082     0.93800
C419        C  0.96485289  0.18857613  0.93073042     0.85900
C420        C  0.00714520  0.18913598  0.04997571     0.92200
O421        O  0.05344632  0.08104458  0.24687651    -0.71500
O422        O  0.00943401  0.03497521  0.24670008    -0.72500
O423        O  0.04869052  0.05699251  0.20202157    -0.61100
O424        O  0.01909864  0.05871253  0.29164276    -0.69600
O425        O  0.26276239  0.06552802  0.28406286    -0.69100
O426        O  0.95793793  0.06344610  0.19226233    -0.60400
O427        O  0.25511442  0.04283466  0.23713539    -0.72900
O428        O  0.96158384  0.08674047  0.23823893    -0.71700
Cu429      Cu  0.03587808  0.05769476  0.24709489     1.04600
Cu430      Cu  0.27410830  0.06538072  0.23788640     1.04300
C431        C  0.01349807  0.09119126  0.24241257     0.94600
C432        C  0.29221254  0.03216869  0.24216534     0.93800
C433        C  0.00892536  0.06010595  0.18275444     0.85900
C434        C  0.96933908  0.06199008  0.30233625     0.92200
O435        O  0.14623840  0.18382067  0.28104409    -0.71500
O436        O  0.11729555  0.18497751  0.18908766    -0.72500
O437        O  0.15663864  0.20669412  0.23414312    -0.61100
O438        O  0.11279212  0.16194153  0.23606604    -0.69600
O439        O  0.02073509  0.16800312  0.24367476    -0.69100
O440        O  0.06643357  0.21395594  0.24293227    -0.60400
O441        O  0.02705081  0.19189194  0.19877355    -0.72900
O442        O  0.05459627  0.19027326  0.28807089    -0.71700
Cu443      Cu  0.13643174  0.18416190  0.23473885     1.04600
Cu444      Cu  0.03906933  0.19128824  0.24361133     1.04300
C445        C  0.10377190  0.18669316  0.29907875     0.94600
C446        C  0.06646579  0.18853025  0.17954511     0.93800
C447        C  0.11971491  0.21749124  0.23851224     0.85900
C448        C  0.06066467  0.15773771  0.24042198     0.92200
C449        C  0.99537895  0.13495030  0.23031840     0.25000
C450        C  0.04774337  0.14081766  0.24169056    -0.23100
C451        C  0.08926474  0.13027077  0.25320210     0.19900
C452        C  0.07852027  0.11417694  0.25340994     0.24900
C453        C  0.02608808  0.10823799  0.24193289    -0.23100
C454        C  0.98470487  0.11886931  0.23027306     0.19800
F455        F  0.93405150  0.11375484  0.21812409    -0.13000
F456        F  0.95526800  0.14473115  0.21813993    -0.15400
F457        F  0.11918877  0.10448313  0.26532301    -0.15400
F458        F  0.14008983  0.13556324  0.26486257    -0.13000
C459        C  0.97958496  0.19130841  0.10549070     0.25000
C460        C  0.02211508  0.18882030  0.08308794    -0.23100
C461        C  0.07963621  0.18615964  0.09260858     0.19900
C462        C  0.09416811  0.18601906  0.12378780     0.24900
C463        C  0.05172394  0.18866942  0.14626964    -0.23100
C464        C  0.99409923  0.19130743  0.13661517     0.19800
F465        F  0.95112279  0.19387253  0.15720906    -0.13000
F466        F  0.92388428  0.19410499  0.09732715    -0.15400
F467        F  0.14988232  0.18323390  0.13186109    -0.15400
F468        F  0.12196867  0.18335682  0.07176003    -0.13000
C469        C  0.99232105  0.06133960  0.09600029     0.25000
C470        C  0.05036341  0.06112022  0.08594818    -0.23100
C471        C  0.09449491  0.06017030  0.10804238     0.19900
C472        C  0.08106134  0.05958648  0.13933003     0.24900
C473        C  0.02297758  0.06008677  0.14941150    -0.23100
C474        C  0.97888957  0.06084725  0.12725451     0.19800
F475        F  0.92242012  0.06099174  0.13570293    -0.13000
F476        F  0.94803544  0.06225077  0.07562663    -0.15400
F477        F  0.12538874  0.05867733  0.15967955    -0.15400
F478        F  0.15085986  0.05956062  0.09944896    -0.13000
C479        C  0.07782432  0.13607657  0.98290875     0.25000
C480        C  0.02144239  0.14171891  0.98763893    -0.23100
C481        C  0.97623848  0.13076607  0.99181772     0.19900
C482        C  0.98748274  0.11471296  0.99216591     0.24900
C483        C  0.04410440  0.10913313  0.98844331    -0.23100
C484        C  0.08900358  0.12002101  0.98330745     0.19800
F485        F  0.14413303  0.11517800  0.97839453    -0.13000
F486        F  0.12256100  0.14604540  0.97804238    -0.15400
F487        F  0.94291435  0.10468296  0.99698990    -0.15400
F488        F  0.92074589  0.13548861  0.99593906    -0.13000
C489        C  0.11957440  0.26199066  0.23823212     0.25000
C490        C  0.17931048  0.26553927  0.23756012    -0.23100
C491        C  0.21898748  0.25309962  0.23728524     0.19900
C492        C  0.19963797  0.23759740  0.23779549     0.24900
C493        C  0.13988048  0.23405212  0.23840805    -0.23100
C494        C  0.10024544  0.24649479  0.23866720     0.19800
F495        F  0.04245107  0.24374898  0.23894882    -0.13000
F496        F  0.07919635  0.27350437  0.23807177    -0.15400
F497        F  0.23998936  0.22607817  0.23798411    -0.15400
F498        F  0.27680216  0.25584949  0.23683876    -0.13000
C499        C  0.33963145  0.38046377  0.23413732     0.25000
C500        C  0.29430373  0.39154534  0.23469964    -0.23100
C501        C  0.23695709  0.38610505  0.23447375     0.19900
C502        C  0.22520933  0.37007430  0.23417812     0.24900
C503        C  0.27056160  0.35899043  0.23414874    -0.23100
C504        C  0.32788773  0.36443725  0.23387943     0.19800
F505        F  0.02958975  0.35572878  0.22641605    -0.13000
F506        F  0.05137619  0.38651887  0.22537733    -0.15400
F507        F  0.16899349  0.36549274  0.23388264    -0.15400
F508        F  0.19185385  0.39625229  0.23498412    -0.13000
C509        C  0.00308827  0.31043924  0.36900868     0.25000
C510        C  0.29877873  0.31029176  0.39208847    -0.23100
C511        C  0.24105919  0.31249798  0.38251431     0.19900
C512        C  0.22674486  0.31278329  0.35136796     0.24900
C513        C  0.26959630  0.31071020  0.32885728    -0.23100
C514        C  0.32739359  0.30836785  0.33849937     0.19800
F515        F  0.02980428  0.30870650  0.31690873    -0.13000
F516        F  0.05960090  0.30840241  0.37643186    -0.15400
F517        F  0.17066543  0.31511394  0.34340210    -0.15400
F518        F  0.19812924  0.31469683  0.40329720    -0.13000
C519        C  0.34237319  0.43837649  0.35293378     0.25000
C520        C  0.29891046  0.43848859  0.33040485    -0.23100
C521        C  0.24050711  0.43825298  0.33992148     0.19900
C522        C  0.22606155  0.43819133  0.37104401     0.24900
C523        C  0.26945353  0.43839215  0.39359726    -0.23100
C524        C  0.32792002  0.43837026  0.38410495     0.19800
F525        F  0.02710495  0.44039834  0.40370471    -0.13000
F526        F  0.05405521  0.44194742  0.34401499    -0.15400
F527        F  0.16930658  0.43811586  0.37896696    -0.15400
F528        F  0.19679900  0.43788832  0.31913520    -0.13000
C529        C  0.32843023  0.38543026  0.48943615     0.25000
C530        C  0.27113595  0.39089649  0.48834334    -0.23100
C531        C  0.22585934  0.37979075  0.48748279     0.19900
C532        C  0.23763056  0.36375261  0.48698109     0.24900
C533        C  0.29494190  0.35829676  0.48730242    -0.23100
C534        C  0.34018910  0.36938316  0.48893298     0.19800
F535        F  0.06100951  0.36595776  0.48139233    -0.13000
F536        F  0.03641326  0.39666001  0.48217800    -0.15400
F537        F  0.19256346  0.35360358  0.48577003    -0.15400
F538        F  0.16966876  0.38436227  0.48715813    -0.13000
C539        C  0.20175899  0.51245101  0.48686373     0.25000
C540        C  0.14233078  0.51615586  0.48936948    -0.23100
C541        C  0.10215715  0.50382542  0.48962000     0.19900
C542        C  0.12078127  0.48826365  0.48798856     0.24900
C543        C  0.18028127  0.48455758  0.48606781    -0.23100
C544        C  0.22035415  0.49690052  0.48530844     0.19800
F545        F  0.27781601  0.49399217  0.48269237    -0.13000
F546        F  0.24243834  0.52387467  0.48547748    -0.15400
F547        F  0.08011079  0.47683176  0.48889165    -0.15400
F548        F  0.04464041  0.50674405  0.49195648    -0.13000
C549        C  0.32648468  0.61431976  0.50499021     0.25000
C550        C  0.05846231  0.61003999  0.49377723    -0.23100
C551        C  0.10453837  0.62091583  0.49306554     0.19900
C552        C  0.09388595  0.63699475  0.49449088     0.24900
C553        C  0.03699331  0.64263660  0.49666372    -0.23100
C554        C  0.31622639  0.63035062  0.50770979     0.19800
F555        F  0.26406122  0.63501415  0.51865126    -0.13000
F556        F  0.28450534  0.60413798  0.51362461    -0.15400
F557        F  0.13952133  0.64697728  0.49401633    -0.15400
F558        F  0.16027725  0.61607495  0.49082869    -0.13000
C559        C  0.31939486  0.69397452  0.61670872     0.25000
C560        C  0.03529604  0.68960047  0.59383148    -0.23100
C561        C  0.09016460  0.69469547  0.60421761     0.19900
C562        C  0.10491160  0.69385495  0.63533130     0.24900
C563        C  0.06514091  0.68812126  0.65680123    -0.23100
C564        C  0.33409766  0.69427969  0.64778595     0.19800
F565        F  0.29340928  0.69915822  0.66807299    -0.13000
F566        F  0.26579052  0.69870015  0.60804433    -0.15400
F567        F  0.15732139  0.69921108  0.64463273    -0.15400
F568        F  0.12966649  0.70069529  0.58443306    -0.13000
C569        C  0.08291775  0.55951084  0.63949052     0.25000
C570        C  0.02479165  0.56182698  0.64863639    -0.23100
C571        C  0.31104262  0.56210177  0.62589853     0.19900
C572        C  0.32518585  0.56173280  0.59468883     0.24900
C573        C  0.05646562  0.56190728  0.58567168    -0.23100
C574        C  0.09839713  0.55958081  0.60844778     0.19800
F575        F  0.15437118  0.55699046  0.60068483    -0.13000
F576        F  0.12535089  0.55715476  0.66051040    -0.15400
F577        F  0.28152246  0.56260668  0.57392804    -0.15400
F578        F  0.25457208  0.56309602  0.63407307    -0.13000
C579        C  0.31817242  0.61979453  0.73909907     0.25000
C580        C  0.02616478  0.60880203  0.74804626    -0.23100
C581        C  0.08147117  0.61387543  0.75712303     0.19900
C582        C  0.09407094  0.62983342  0.75917964     0.24900
C583        C  0.05166438  0.64116382  0.75236138    -0.23100
C584        C  0.32948433  0.63579360  0.74147530     0.19800
F585        F  0.28730598  0.64608975  0.73367559    -0.13000
F586        F  0.26492423  0.61536050  0.72926177    -0.15400
F587        F  0.14799395  0.63417305  0.76811257    -0.15400
F588        F  0.12366536  0.60344468  0.76412996    -0.13000
C589        C  0.21673368  0.99739285  0.00382664     0.25000
C590        C  0.18058489  0.98493883  0.99523633    -0.23100
C591        C  0.12310997  0.98832174  0.98632791     0.19900
C592        C  0.10244133  0.00369917  0.98631240     0.24900
C593        C  0.13857070  0.01613520  0.99509268    -0.23100
C594        C  0.19610976  0.01273573  0.00382109     0.19800
F595        F  0.23293174  0.02423251  0.01273302    -0.13000
F596        F  0.27217257  0.99479971  0.01271661    -0.15400
F597        F  0.04711264  0.00635474  0.97729940    -0.15400
F598        F  0.08653361  0.97678610  0.97732327    -0.13000
C599        C  0.34759159  0.87132195  0.99312695     0.25000
C600        C  0.30605606  0.86035154  0.00328646    -0.23100
C601        C  0.25279756  0.86587012  0.01445710     0.19900
C602        C  0.24091266  0.88187062  0.01482667     0.24900
C603        C  0.28202313  0.89273476  0.00414160    -0.23100
C604        C  0.33565904  0.88732157  0.99363854     0.19800
F605        F  0.37574138  0.89745932  0.98260149    -0.13000
F606        F  0.39951493  0.86663320  0.98190714    -0.15400
F607        F  0.18916083  0.88674669  0.02599646    -0.15400
F608        F  0.21219363  0.85584331  0.02533498    -0.13000
C609        C  0.23372576  0.75263224  0.74195833     0.25000
C610        C  0.19713222  0.76482726  0.75148773    -0.23100
C611        C  0.13963695  0.76111876  0.75978660     0.19900
C612        C  0.11933801  0.74576638  0.75844789     0.24900
C613        C  0.15562565  0.73357364  0.74874918    -0.23100
C614        C  0.21328641  0.73721650  0.74057942     0.19800
F615        F  0.25023725  0.72590362  0.73098685    -0.13000
F616        F  0.28920084  0.75557010  0.73356522    -0.15400
F617        F  0.06407139  0.74288719  0.76724618    -0.15400
F618        F  0.10239452  0.77232985  0.76952358    -0.13000
C619        C  0.23974910  0.81400854  0.86685732     0.25000
C620        C  0.28292697  0.81103416  0.84487872    -0.23100
C621        C  0.34047708  0.80893878  0.85510790     0.19900
C622        C  0.35415594  0.80972313  0.88634734     0.24900
C623        C  0.31082091  0.81252351  0.90820220    -0.23100
C624        C  0.25348104  0.81471403  0.89805316     0.19800
F625        F  0.21040376  0.81782732  0.91830041    -0.13000
F626        F  0.18393763  0.81630311  0.85832587    -0.15400
F627        F  0.40974600  0.80735145  0.89520823    -0.15400
F628        F  0.38403774  0.80615074  0.83498142    -0.13000
C629        C  0.24631060  0.93690391  0.85308006     0.25000
C630        C  0.30441101  0.93883850  0.84382525    -0.23100
C631        C  0.34731433  0.94022279  0.86641339     0.19900
C632        C  0.33250334  0.94005448  0.89746768     0.24900
C633        C  0.27417928  0.93852057  0.90677370    -0.23100
C634        C  0.23147478  0.93670418  0.88414895     0.19800
F635        F  0.17514843  0.93478793  0.89197245    -0.13000
F636        F  0.20354921  0.93491603  0.83208441    -0.15400
F637        F  0.04969889  0.94192985  0.91790495    -0.15400
F638        F  0.07683473  0.94180167  0.85779221    -0.13000
C639        C  0.33962682  0.86421631  0.74774568     0.25000
C640        C  0.28323171  0.85842558  0.75157811    -0.23100
C641        C  0.23737454  0.86919603  0.75534792     0.19900
C642        C  0.24772900  0.88525728  0.75529563     0.24900
C643        C  0.30405898  0.89100754  0.75157074    -0.23100
C644        C  0.34993893  0.88028814  0.74776028     0.19800
F645        F  0.07625552  0.88364862  0.75434472    -0.13000
F646        F  0.38514138  0.85438888  0.74398320    -0.15400
F647        F  0.20252516  0.89514250  0.75952347    -0.15400
F648        F  0.18203935  0.86429276  0.75923660    -0.13000
C649        C  0.33274820  0.68966058  0.35746679     0.25000
C650        C  0.27748113  0.68761503  0.34478811    -0.23100
C651        C  0.23018873  0.68522518  0.36466128     0.19900
C652        C  0.23799929  0.68505285  0.39648300     0.24900
C653        C  0.29325270  0.68734787  0.40922430    -0.23100
C654        C  0.34059305  0.68956848  0.38919572     0.19800
F655        F  0.07125437  0.68751023  0.39858311    -0.13000
F656        F  0.37933584  0.69220150  0.33920630    -0.15400
F657        F  0.19123512  0.68274474  0.41472281    -0.15400
F658        F  0.17621779  0.68284422  0.35335641    -0.13000
C659        C  0.17026903  0.56601996  0.38522249     0.25000
C660        C  0.11565091  0.56540885  0.39917818    -0.23100
C661        C  0.06592916  0.56524800  0.38022786     0.19900
C662        C  0.07094124  0.56497525  0.34828085     0.24900
C663        C  0.12563207  0.56485674  0.33438960    -0.23100
C664        C  0.17524941  0.56574440  0.35328634     0.19800
F665        F  0.22906760  0.56642553  0.34094890    -0.13000
F666        F  0.21919423  0.56659461  0.40238730    -0.15400
F667        F  0.02206130  0.56445001  0.33106122    -0.15400
F668        F  0.01196604  0.56529964  0.39247617    -0.13000
C669        C  0.01835134  0.49782454  0.22725123     0.25000
C670        C  0.05249489  0.48544389  0.23823188    -0.23100
C671        C  0.10918950  0.48884546  0.24852076     0.19900
C672        C  0.13068334  0.50416480  0.24811668     0.24900
C673        C  0.09626355  0.51656610  0.23745840    -0.23100
C674        C  0.03986614  0.51312448  0.22679657     0.19800
F675        F  0.00511723  0.52455090  0.21553556    -0.13000
F676        F  0.96416660  0.49517692  0.21644416    -0.15400
F677        F  0.18496631  0.50682319  0.25877228    -0.15400
F678        F  0.14415267  0.47738026  0.25943653    -0.13000
C679        C  0.15615069  0.63704569  0.24419006     0.25000
C680        C  0.21200215  0.64241327  0.25113125    -0.23100
C681        C  0.25616791  0.63132715  0.25625352     0.19900
C682        C  0.24502775  0.61530334  0.25382212     0.24900
C683        C  0.18942605  0.60990107  0.24619612    -0.23100
C684        C  0.14498246  0.62103835  0.24163074     0.19800
F685        F  0.09035783  0.61655484  0.23435537    -0.13000
F686        F  0.11239225  0.64728087  0.23896193    -0.15400
F687        F  0.28895149  0.60512461  0.25901363    -0.15400
F688        F  0.31041702  0.63594924  0.26397068    -0.13000
C689        C  0.17657994  0.68773476  0.85667926     0.25000
C690        C  0.12138819  0.68711642  0.84331229    -0.23100
C691        C  0.07243210  0.68679710  0.86265266     0.19900
C692        C  0.07861007  0.68720811  0.89452549     0.24900
C693        C  0.13382457  0.68797823  0.90791388    -0.23100
C694        C  0.18278118  0.68819936  0.88852651     0.19800
F695        F  0.23714174  0.68882418  0.90023600    -0.13000
F696        F  0.22482567  0.68826340  0.83898247    -0.15400
F697        F  0.03026783  0.68711493  0.91217139    -0.15400
F698        F  0.01818831  0.68598559  0.85082981    -0.13000
C699        C  0.13713620  0.74688473  0.98850802     0.25000
C700        C  0.10493153  0.73519272  0.00326639    -0.23100
C701        C  0.05156902  0.73922282  0.01687649     0.19900
C702        C  0.03101994  0.75458556  0.01569873     0.24900
C703        C  0.06324133  0.76626826  0.00086295    -0.23100
C704        C  0.11655671  0.76220176  0.98723875     0.19800
F705        F  0.14875163  0.77299605  0.97209642    -0.13000
F706        F  0.18794715  0.74346416  0.97444618    -0.15400
F707        F  0.30095729  0.75770624  0.01591473    -0.15400
F708        F  0.01943548  0.72835308  0.03184311    -0.13000
C709        C  0.25025913  0.69086452  0.10493699     0.25000
C710        C  0.19239728  0.68993589  0.09463471    -0.23100
C711        C  0.14798768  0.68923369  0.11659306     0.19900
C712        C  0.16089507  0.68943474  0.14792679     0.24900
C713        C  0.21871073  0.69026708  0.15820566    -0.23100
C714        C  0.26316937  0.69096170  0.13628291     0.19800
F715        F  0.31937103  0.69194258  0.14507871    -0.13000
F716        F  0.29487616  0.69154438  0.08475228    -0.15400
F717        F  0.11642692  0.68854039  0.16816494    -0.15400
F718        F  0.09173225  0.68848182  0.10785689    -0.13000
C719        C  0.34870274  0.56172488  0.85441278     0.25000
C720        C  0.29941782  0.56326375  0.83535884    -0.23100
C721        C  0.24549490  0.56591503  0.84920605     0.19900
C722        C  0.24063238  0.56662169  0.88110077     0.24900
C723        C  0.28955319  0.56463800  0.90010130    -0.23100
C724        C  0.34375274  0.56244352  0.88635640     0.19800
F725        F  0.39184702  0.56047419  0.90378764    -0.13000
F726        F  0.06085829  0.56297664  0.84239208    -0.15400
F727        F  0.18759628  0.56932716  0.89333531    -0.15400
F728        F  0.19699013  0.56763911  0.83200234    -0.13000
C729        C  0.24790144  0.56639755  0.13997087     0.25000
C730        C  0.19026384  0.56319465  0.14861948    -0.23100
C731        C  0.14953975  0.55995310  0.12569166     0.19900
C732        C  0.16606691  0.55959821  0.09486043     0.24900
C733        C  0.22398252  0.56262978  0.08606359    -0.23100
C734        C  0.26448556  0.56618312  0.10909984     0.19800
F735        F  0.32023749  0.56953232  0.10191438    -0.13000
F736        F  0.28834676  0.57002493  0.16140824    -0.15400
F737        F  0.12481624  0.55621310  0.07371601    -0.15400
F738        F  0.09385559  0.55665110  0.13311199    -0.13000
C739        C  0.16755493  0.61525039  0.99626082     0.25000
C740        C  0.22482671  0.61003049  0.99319194    -0.23100
C741        C  0.26957540  0.62123273  0.99149774     0.19900
C742        C  0.25738979  0.63720554  0.99349260     0.24900
C743        C  0.20012719  0.64242434  0.99704882    -0.23100
C744        C  0.15531128  0.63119508  0.99815175     0.19800
F745        F  0.09912489  0.63552712  0.00115594    -0.13000
F746        F  0.12307231  0.60493831  0.99812463    -0.15400
F747        F  0.30197537  0.64750567  0.99212575    -0.15400
F748        F  0.32547300  0.61680103  0.98770328    -0.13000
C749        C  0.00321966  0.19159555  0.87701641     0.25000
C750        C  0.95639658  0.18833665  0.89689359    -0.23100
C751        C  0.23127396  0.18273612  0.88359355     0.19900
C752        C  0.22468115  0.18326093  0.85170729     0.24900
C753        C  0.27217843  0.18666502  0.83254996    -0.23100
C754        C  0.32644598  0.18929658  0.84589172     0.19800
F755        F  0.04193161  0.19465754  0.82703391    -0.13000
F756        F  0.05623477  0.19540484  0.88812492    -0.15400
F757        F  0.17175984  0.18021629  0.83958886    -0.15400
F758        F  0.18439336  0.17937177  0.90111959    -0.13000
C759        C  0.06808764  0.06279179  0.84776288     0.25000
C760        C  0.12340143  0.06401973  0.83477873    -0.23100
C761        C  0.17177609  0.06517361  0.85441636     0.19900
C762        C  0.16498792  0.06487203  0.88622503     0.24900
C763        C  0.10969015  0.06343689  0.89928210    -0.23100
C764        C  0.06124836  0.06247754  0.87957873     0.19800
F765        F  0.00682477  0.06119013  0.89092764    -0.13000
F766        F  0.02048842  0.06146161  0.82972123    -0.15400
F767        F  0.21292692  0.06572277  0.90412607    -0.15400
F768        F  0.22609507  0.06663528  0.84294958    -0.13000
C769        C  0.02457913  0.99576821  0.73758044     0.25000
C770        C  0.06080108  0.98417101  0.74993983    -0.23100
C771        C  0.11663576  0.98854055  0.75997919     0.19900
C772        C  0.13595176  0.00397966  0.75724292     0.24900
C773        C  0.10009352  0.01552725  0.74445442    -0.23100
C774        C  0.04391884  0.01120505  0.73481680     0.19800
F775        F  0.00736458  0.02186787  0.72233211    -0.13000
F776        F  0.97060980  0.99218917  0.72751750    -0.15400
F777        F  0.18951301  0.00762608  0.76777982    -0.15400
F778        F  0.15281866  0.97791550  0.77286953    -0.13000
C779        C  0.25346986  0.13097426  0.73908636     0.25000
C780        C  0.20761978  0.14188432  0.74089901    -0.23100
C781        C  0.15076699  0.13620640  0.74331525     0.19900
C782        C  0.14004079  0.12011057  0.74370045     0.24900
C783        C  0.18593189  0.10924278  0.74163095    -0.23100
C784        C  0.24271665  0.11492249  0.73945491     0.19800
F785        F  0.28822623  0.10497622  0.73715592    -0.13000
F786        F  0.30934918  0.13572601  0.73693209    -0.15400
F787        F  0.08440774  0.11523259  0.74642716    -0.15400
F788        F  0.10523269  0.14617040  0.74515444    -0.13000
C789        C  0.24050790  0.06395668  0.34901537     0.25000
C790        C  0.29616059  0.06286228  0.33628382    -0.23100
C791        C  0.00907016  0.06034489  0.35608129     0.19900
C792        C  0.33660322  0.06180732  0.38802944     0.24900
C793        C  0.28094359  0.06284745  0.40067478    -0.23100
C794        C  0.23297071  0.06395086  0.38077685     0.19800
F795        F  0.17836795  0.06515171  0.39195450    -0.13000
F796        F  0.19297690  0.06482622  0.33082264    -0.15400
F797        F  0.04893055  0.05819360  0.40602474    -0.15400
F798        F  0.06337061  0.05842792  0.34489419    -0.13000
C799        C  0.24442022  0.06295712  0.63978046     0.25000
C800        C  0.18678236  0.06057515  0.64929898    -0.23100
C801        C  0.14404769  0.05806269  0.62701643     0.19900
C802        C  0.15833063  0.05800856  0.59589813     0.24900
C803        C  0.21597916  0.06050948  0.58626132    -0.23100
C804        C  0.25877392  0.06296920  0.60866703     0.19800
F805        F  0.31470633  0.06545705  0.60061212    -0.13000
F806        F  0.28709207  0.06562276  0.66053793    -0.15400
F807        F  0.11519787  0.05557772  0.57530919    -0.15400
F808        F  0.08841044  0.05533582  0.63532851    -0.13000
C809        C  0.06727210  0.18689550  0.38406459     0.25000
C810        C  0.12226349  0.18592081  0.39752823    -0.23100
C811        C  0.17116455  0.18455368  0.37833881     0.19900
C812        C  0.16527716  0.18457517  0.34646857     0.24900
C813        C  0.11038698  0.18596898  0.33292074    -0.23100
C814        C  0.06131856  0.18690404  0.35219451     0.19800
F815        F  0.00711397  0.18788720  0.34037612    -0.13000
F816        F  0.01912109  0.18828210  0.40165662    -0.15400
F817        F  0.21365461  0.18346900  0.32898918    -0.15400
F818        F  0.22511599  0.18313031  0.39032306    -0.13000
C819        C  0.03753671  0.23838842  0.49755204     0.25000
C820        C  0.09489358  0.23448553  0.48933628    -0.23100
C821        C  0.13140139  0.24647358  0.47873115     0.19900
C822        C  0.11118246  0.26185313  0.47626049     0.24900
C823        C  0.05374926  0.26573371  0.48440257    -0.23100
C824        C  0.01735150  0.25375524  0.49510315     0.19800
F825        F  0.96218973  0.25687370  0.50379089    -0.13000
F826        F  0.00048472  0.22736750  0.50829331    -0.15400
F827        F  0.14826832  0.27291030  0.46568499    -0.15400
F828        F  0.18669435  0.24336108  0.47027033    -0.13000
C829        C  0.14029612  0.18649976  0.60594383     0.25000
C830        C  0.18302532  0.18898179  0.58354030    -0.23100
C831        C  0.24087007  0.19122844  0.59318922     0.19900
C832        C  0.25518139  0.19126195  0.62432235     0.24900
C833        C  0.21224149  0.18909118  0.64662381    -0.23100
C834        C  0.15467725  0.18659164  0.63707301     0.19800
F835        F  0.11211557  0.18388829  0.65785108    -0.13000
F836        F  0.08441343  0.18391675  0.59788035    -0.15400
F837        F  0.31105516  0.19373905  0.63258215    -0.15400
F838        F  0.28419605  0.19332347  0.57259220    -0.13000
C839        C  0.15432288  0.11385615  0.48703758     0.25000
C840        C  0.21122825  0.10852251  0.49162156    -0.23100
C841        C  0.25567893  0.11973120  0.49530337     0.19900
C842        C  0.24353633  0.13572394  0.49452505     0.24900
C843        C  0.18667331  0.14103530  0.49023952    -0.23100
C844        C  0.14219822  0.12988061  0.48637921     0.19800
F845        F  0.08665686  0.13441720  0.48159504    -0.13000
F846        F  0.11004017  0.10361897  0.48323487    -0.15400
F847        F  0.28762447  0.14598699  0.49867438    -0.15400
F848        F  0.31142407  0.11533056  0.49985773    -0.13000
C849        C  0.13923052  0.31246676  0.09827927     0.25000
C850        C  0.18751253  0.31280792  0.07842932    -0.23100
C851        C  0.24307212  0.31394463  0.09127842     0.19900
C852        C  0.25038946  0.31425640  0.12304799     0.24900
C853        C  0.20228535  0.31345987  0.14291249    -0.23100
C854        C  0.14658713  0.31279058  0.13010523     0.19800
F855        F  0.09905660  0.31203610  0.14830232    -0.13000
F856        F  0.08452962  0.31178580  0.08704587    -0.15400
F857        F  0.30499991  0.31538112  0.13425175    -0.15400
F858        F  0.29078671  0.31448127  0.07319066    -0.13000
C859        C  0.27052399  0.25980384  0.97709955     0.25000
C860        C  0.21455303  0.26374053  0.98753320    -0.23100
C861        C  0.18004039  0.25193546  0.00047866     0.19900
C862        C  0.20055976  0.23657352  0.00250242     0.24900
C863        C  0.25625088  0.23263035  0.99165101    -0.23100
C864        C  0.29106688  0.24450354  0.97923039     0.19800
F865        F  0.02677977  0.24466615  0.97562002    -0.13000
F866        F  0.30572993  0.27071917  0.96436817    -0.15400
F867        F  0.16588723  0.22562399  0.01552597    -0.15400
F868        F  0.12684692  0.25526599  0.01187520    -0.13000
C869        C  0.08732748  0.43313957  0.09986456     0.25000
C870        C  0.03960844  0.43449225  0.07981428    -0.23100
C871        C  0.98405534  0.43605057  0.09237095     0.19900
C872        C  0.31001733  0.43964780  0.12407350     0.24900
C873        C  0.02436334  0.43620465  0.14418439    -0.23100
C874        C  0.07976691  0.43395797  0.13165115     0.19800
F875        F  0.12699617  0.43279853  0.15001782    -0.13000
F876        F  0.14162679  0.43099776  0.08879802    -0.15400
F877        F  0.25714212  0.44330033  0.13553018    -0.15400
F878        F  0.26976626  0.44227623  0.07428661    -0.13000
C879        C  0.27340448  0.50441317  0.99862062     0.25000
C880        C  0.31315901  0.51654431  0.99341524    -0.23100
C881        C  0.37135804  0.51264743  0.98729539     0.19900
C882        C  0.05468115  0.49544800  0.98540225     0.24900
C883        C  0.01555766  0.48297241  0.98806219    -0.23100
C884        C  0.29103393  0.48878520  0.99719550     0.19800
F885        F  0.25132771  0.47748031  0.00302637    -0.13000
F886        F  0.21757054  0.50764821  0.00579241    -0.15400
F887        F  0.11202520  0.49273728  0.98148284    -0.15400
F888        F  0.41127185  0.52394356  0.98180812    -0.13000
C889        C  0.05775938  0.37873043  0.98570243     0.25000
C890        C  0.10388183  0.38959056  0.98599865    -0.23100
C891        C  0.16083481  0.38391684  0.98589297     0.19900
C892        C  0.17151187  0.36786345  0.98536229     0.24900
C893        C  0.12540943  0.35700238  0.98499413    -0.23100
C894        C  0.06843743  0.36267073  0.98521774     0.19800
F895        F  0.02269818  0.35272297  0.98468655    -0.13000
F896        F  0.00182967  0.38355320  0.98606895    -0.15400
F897        F  0.22744814  0.36304624  0.98543330    -0.15400
F898        F  0.20658080  0.39386218  0.98598088    -0.13000
C899        C  0.09069462  0.31396024  0.62271843     0.25000
C900        C  0.04231026  0.31326661  0.64242490    -0.23100
C901        C  0.98680644  0.31256667  0.62943530     0.19900
C902        C  0.97976108  0.31239148  0.59762658     0.24900
C903        C  0.02816555  0.31300144  0.57785739    -0.23100
C904        C  0.08366754  0.31384785  0.59086753     0.19800
F905        F  0.13147639  0.31429450  0.57285013    -0.13000
F906        F  0.14519306  0.31482468  0.63416202    -0.15400
F907        F  0.25672191  0.31084496  0.58689788    -0.15400
F908        F  0.27064753  0.31083065  0.64808430    -0.13000
C909        C  0.02998057  0.23766567  0.74287654     0.25000
C910        C  0.30228064  0.23490948  0.73806093    -0.23100
C911        C  0.26507316  0.24736595  0.73109335     0.19900
C912        C  0.28584448  0.26272991  0.73054195     0.24900
C913        C  0.01218597  0.26551331  0.73645591    -0.23100
C914        C  0.05020066  0.25307931  0.74228040     0.19800
F915        F  0.10682220  0.25583803  0.74837031    -0.13000
F916        F  0.06838721  0.22610466  0.74918149    -0.15400
F917        F  0.24851274  0.27436708  0.72306220    -0.15400
F918        F  0.20892979  0.24465725  0.72380374    -0.13000
C919        C  0.05822325  0.31168438  0.85098834     0.25000
C920        C  0.10178585  0.30974447  0.82884285    -0.23100
C921        C  0.15929659  0.30737188  0.83887935     0.19900
C922        C  0.17265032  0.30700465  0.87013112     0.24900
C923        C  0.12904427  0.30891730  0.89218309    -0.23100
C924        C  0.07162464  0.31125091  0.88223430     0.19800
F925        F  0.02824536  0.31351513  0.90272596    -0.13000
F926        F  0.00241860  0.31403832  0.84254113    -0.15400
F927        F  0.22832537  0.30454273  0.87874516    -0.15400
F928        F  0.20321702  0.30551017  0.81855251    -0.13000
C929        C  0.14279372  0.43733012  0.62472659     0.25000
C930        C  0.19141655  0.43618967  0.64430627    -0.23100
C931        C  0.24649578  0.43474557  0.63103230     0.19900
C932        C  0.25305206  0.43486795  0.59918378     0.24900
C933        C  0.20463549  0.43637657  0.57967138    -0.23100
C934        C  0.14940295  0.43742892  0.59284979     0.19800
F935        F  0.10167770  0.43899023  0.57497077    -0.13000
F936        F  0.08843461  0.43841387  0.63626022    -0.15400
F937        F  0.30719852  0.43341693  0.58752963    -0.15400
F938        F  0.29446103  0.43344466  0.64879097    -0.13000
C939        C  0.27389997  0.48831022  0.75289453     0.25000
C940        C  0.22050405  0.48456911  0.73888693    -0.23100
C941        C  0.18907402  0.49661313  0.72465720     0.19900
C942        C  0.21066048  0.51193649  0.72424313     0.24900
C943        C  0.26418170  0.51562930  0.73821078    -0.23100
C944        C  0.29534330  0.50360039  0.75253576     0.19800
F945        F  0.34590736  0.50667793  0.76715077    -0.13000
F946        F  0.30526218  0.47720842  0.76765526    -0.15400
F947        F  0.17933302  0.52311256  0.70966557    -0.15400
F948        F  0.13805161  0.49355031  0.71046142    -0.13000
C949        C  0.07653445  0.44286552  0.84098792     0.25000
C950        C  0.13342481  0.43945643  0.83106851    -0.23100
C951        C  0.17529726  0.43567080  0.85326832     0.19900
C952        C  0.16073562  0.43522555  0.88438559     0.24900
C953        C  0.10382587  0.43845671  0.89410972    -0.23100
C954        C  0.06199197  0.44227031  0.87207688     0.19800
F955        F  0.00710443  0.44579060  0.88065211    -0.13000
F956        F  0.03440393  0.44678338  0.82070683    -0.15400
F957        F  0.20227544  0.43121771  0.90494914    -0.15400
F958        F  0.23036796  0.43219964  0.84498329    -0.13000
C959        C  0.08023689  0.38508748  0.72356389     0.25000
C960        C  0.12970678  0.39100728  0.73825087    -0.23100
C961        C  0.16890259  0.38034068  0.75177796     0.19900
C962        C  0.15907865  0.36420387  0.75026164     0.24900
C963        C  0.10959380  0.35837224  0.73560016    -0.23100
C964        C  0.07020926  0.36897439  0.72237874     0.19800
F965        F  0.02222330  0.36369396  0.70771839    -0.13000
F966        F  0.04209226  0.39483720  0.70966201    -0.15400
F967        F  0.19674266  0.35433289  0.76423912    -0.15400
F968        F  0.21628140  0.38549848  0.76715842    -0.13000
C969        C  0.32103767  0.81772641  0.11386113     0.25000
C970        C  0.04023947  0.81475222  0.09342675    -0.23100
C971        C  0.09494405  0.81216149  0.10636687     0.19900
C972        C  0.10176238  0.81161517  0.13819188     0.24900
C973        C  0.05387879  0.81373074  0.15795786    -0.23100
C974        C  0.99940558  0.81675516  0.14489505     0.19800
F975        F  0.27966177  0.82046771  0.16327558    -0.13000
F976        F  0.26839501  0.82109481  0.10175589    -0.15400
F977        F  0.15552476  0.80884023  0.14945336    -0.15400
F978        F  0.14172349  0.80958659  0.08825737    -0.13000
C979        C  0.06148699  0.75279708  0.24345632     0.25000
C980        C  0.02494172  0.76520661  0.25178827    -0.23100
C981        C  0.29362054  0.76284980  0.26774956     0.19900
C982        C  0.27208071  0.74754900  0.26633141     0.24900
C983        C  0.30301954  0.73582446  0.25082383    -0.23100
C984        C  0.35550738  0.73987519  0.23631244     0.19800
F985        F  0.38593463  0.72910854  0.22013076    -0.13000
F986        F  0.11770676  0.75542327  0.23613053    -0.15400
F987        F  0.22175259  0.74416206  0.28090765    -0.15400
F988        F  0.26284927  0.77372030  0.28349179    -0.13000
C989        C  0.15408459  0.93443849  0.13833550     0.25000
C990        C  0.20289802  0.93606242  0.15755710    -0.23100
C991        C  0.25746258  0.93805464  0.14408205     0.19900
C992        C  0.26297359  0.93886844  0.11220418     0.24900
C993        C  0.21388491  0.93765374  0.09295056    -0.23100
C994        C  0.15951274  0.93525845  0.10648829     0.19800
F995        F  0.11115309  0.93391590  0.08903016    -0.13000
F996        F  0.10062930  0.93201539  0.15029164    -0.15400
F997        F  0.31674244  0.94089135  0.10035955    -0.15400
F998        F  0.30548235  0.93971022  0.16170628    -0.13000
C999        C  0.28702707  0.98832225  0.25721444     0.25000
C1000       C  0.22970395  0.98447262  0.24866263    -0.23100
C1001       C  0.19380477  0.99644558  0.23755956     0.19900
C1002       C  0.21447026  0.01176860  0.23497132     0.24900
C1003       C  0.27182695  0.01562319  0.24346549    -0.23100
C1004       C  0.30770470  0.00364967  0.25462339     0.19800
F1005       F  0.36272064  0.00674122  0.26364765    -0.13000
F1006       F  0.32352901  0.97729130  0.26844008    -0.15400
F1007       F  0.17780244  0.02280799  0.22394263    -0.15400
F1008       F  0.13865139  0.99337251  0.22874118    -0.13000
C1009       C  0.08328578  0.88541829  0.25635581     0.25000
C1010       C  0.13928851  0.89107522  0.25097858    -0.23100
C1011       C  0.18443289  0.88023097  0.24611843     0.19900
C1012       C  0.17366475  0.86414863  0.24641424     0.24900
C1013       C  0.11749843  0.85846133  0.25161871    -0.23100
C1014       C  0.07246793  0.86935955  0.25674708     0.19800
F1015       F  0.01749262  0.86459001  0.26241072    -0.13000
F1016       F  0.03894604  0.89539760  0.26203450    -0.15400
F1017       F  0.21844656  0.85420568  0.24152124    -0.15400
F1018       F  0.23929032  0.88514206  0.24061559    -0.13000
C1019       C  0.26042622  0.81664546  0.60704069     0.25000
C1020       C  0.20598643  0.81362618  0.59389012    -0.23100
C1021       C  0.15853153  0.81085481  0.61363940     0.19900
C1022       C  0.16563365  0.81087985  0.64546678     0.24900
C1023       C  0.22026618  0.81352160  0.65848072    -0.23100
C1024       C  0.26748076  0.81657400  0.63890877     0.19800
F1025       F  0.32068137  0.81969367  0.65058035    -0.13000
F1026       F  0.30722782  0.81957018  0.58916755    -0.15400
F1027       F  0.11912449  0.80782085  0.66348806    -0.15400
F1028       F  0.10488244  0.80793315  0.60235192    -0.13000
C1029       C  0.21399349  0.73852759  0.51001211     0.25000
C1030       C  0.27197919  0.73472933  0.50294354    -0.23100
C1031       C  0.30976556  0.74683310  0.49438728     0.19900
C1032       C  0.29018140  0.76226676  0.49285024     0.24900
C1033       C  0.23219630  0.76605232  0.49997925    -0.23100
C1034       C  0.19443936  0.75394266  0.50845662     0.19800
F1035       F  0.13843046  0.75694726  0.51562416    -0.13000
F1036       F  0.17560922  0.72735686  0.51865609    -0.15400
F1037       F  0.32843459  0.77346009  0.48415260    -0.15400
F1038       F  0.36574935  0.74380746  0.48715687    -0.13000
C1039       C  0.18673258  0.80887969  0.38531012     0.25000
C1040       C  0.14389296  0.81128667  0.40754329    -0.23100
C1041       C  0.08614545  0.81338515  0.39792069     0.19900
C1042       C  0.07166130  0.81303973  0.36679411     0.24900
C1043       C  0.11450400  0.81056684  0.34443383    -0.23100
C1044       C  0.17239311  0.80851537  0.35416915     0.19800
F1045       F  0.21569396  0.80620510  0.33364969    -0.13000
F1046       F  0.24250682  0.80649130  0.39373219    -0.15400
F1047       F  0.01551894  0.81515349  0.35870077    -0.15400
F1048       F  0.04342478  0.81606311  0.41861108    -0.13000
C1049       C  0.09110922  0.93802093  0.64393290     0.25000
C1050       C  0.03686441  0.93557406  0.65744015    -0.23100
C1051       C  0.31412757  0.93283869  0.63894330     0.19900
C1052       C  0.31962995  0.93290908  0.60699979     0.24900
C1053       C  0.04860402  0.93555238  0.59277249    -0.23100
C1054       C  0.09701816  0.93800996  0.61206478     0.19800
F1055       F  0.15047657  0.94061433  0.60028285    -0.13000
F1056       F  0.13832562  0.94099989  0.66150200    -0.15400
F1057       F  0.27130016  0.93146953  0.58955898    -0.15400
F1058       F  0.26052261  0.93109083  0.65115730    -0.13000
C1059       C  0.28587131  0.98742605  0.49646948     0.25000
C1060       C  0.01391458  0.98385385  0.50071392    -0.23100
C1061       C  0.05220601  0.99640850  0.50461063     0.19900
C1062       C  0.03229841  0.01180470  0.50362481     0.31300
C1063       C  0.30646595  0.01535394  0.49536464    -0.23100
C1064       C  0.26679673  0.00292597  0.49511109     0.19800
F1065       F  0.20921362  0.00573227  0.49371968    -0.13000
F1066       F  0.24546068  0.97591321  0.49668172    -0.15400
F1067       F  0.07175824  0.02342563  0.50704839    -0.15400
F1068       F  0.10929714  0.99384445  0.50944233    -0.13000
C1069       C  0.07951731  0.93932615  0.35244177     0.25000
C1070       C  0.13811003  0.93996431  0.34325072    -0.23100
C1071       C  0.18097910  0.94094244  0.36594257     0.19900
C1072       C  0.16596153  0.94113675  0.39698431     0.24900
C1073       C  0.10743120  0.94021413  0.40625807    -0.23100
C1074       C  0.06446622  0.93941316  0.38352541     0.19800
F1075       F  0.00766852  0.93879805  0.39125692    -0.13000
F1076       F  0.03635414  0.93833455  0.33140571    -0.15400
F1077       F  0.20933905  0.94203286  0.41790256    -0.15400
F1078       F  0.23769275  0.94190675  0.35817321    -0.13000
C1079       C  0.07058602  0.88038551  0.50343021     0.25000
C1080       C  0.11496807  0.89151245  0.49909645    -0.23100
C1081       C  0.17188565  0.88624781  0.49499169     0.19900
C1082       C  0.18423494  0.87026727  0.49526391     0.24900
C1083       C  0.13989842  0.85911863  0.49986512    -0.23100
C1084       C  0.08290457  0.86442555  0.50382233     0.19800
F1085       F  0.03865315  0.85422111  0.50802595    -0.13000
F1086       F  0.01486792  0.88488250  0.50772681    -0.15400
F1087       F  0.23988263  0.86579811  0.49074507    -0.15400
F1088       F  0.21564238  0.89651940  0.49002636    -0.13000
O1089       O  0.32929245  0.95647830  0.49453822    -0.71500
O1090       O  0.37661534  0.91208657  0.49541957    -0.72500
O1091       O  0.33918292  0.93311162  0.54104577    -0.61100
O1092       O  0.37252834  0.93540742  0.44940471    -0.69600
O1093       O  0.46220182  0.94230662  0.46060080    -0.69100
O1094       O  0.42968476  0.94037211  0.54915461    -0.60400
O1095       O  0.46733803  0.91850230  0.50545246    -0.72900
O1096       O  0.41899584  0.96404133  0.50394147    -0.71700
Cu1097     Cu  0.35115710  0.93406885  0.49473378     1.04600
Cu1098     Cu  0.44756189  0.94158903  0.50511651     1.04300
C1099       C  0.36577174  0.96739118  0.49890828     0.94600
C1100       C  0.42856721  0.90806144  0.50081286     0.93800
C1101       C  0.38084310  0.93611086  0.55957664     0.85900
C1102       C  0.42383768  0.93903442  0.44072247     0.92200
O1103       O  0.53415196  0.83771561  0.49817608    -0.71500
O1104       O  0.57758326  0.79307212  0.49431379    -0.72500
O1105       O  0.53736085  0.81529399  0.45086174    -0.61100
O1106       O  0.56956386  0.81542730  0.54231654    -0.69600
O1107       O  0.47819893  0.80891756  0.55015277    -0.69100
O1108       O  0.44708063  0.80845552  0.46093609    -0.60400
O1109       O  0.48733283  0.78589713  0.50368661    -0.72900
O1110       O  0.44267653  0.83158895  0.50685386    -0.71700
Cu1111     Cu  0.55787013  0.81557616  0.49610520     1.04600
Cu1112     Cu  0.46070871  0.80845365  0.50571990     1.04300
C1113       C  0.48210071  0.84190413  0.50278574     0.94600
C1114       C  0.54027080  0.78234606  0.49848653     0.93800
C1115       C  0.48611625  0.81204328  0.44162200     0.85900
C1116       C  0.52792664  0.81232343  0.56074338     0.92200
O1117       O  0.54011217  0.91271042  0.25779281    -0.71500
O1118       O  0.58499052  0.95732460  0.25855395    -0.72500
O1119       O  0.54225055  0.93614050  0.30380297    -0.61100
O1120       O  0.57686316  0.93408066  0.21212362    -0.69600
O1121       O  0.48593672  0.94080419  0.20373951    -0.69100
O1122       O  0.45216650  0.94275702  0.29243263    -0.60400
O1123       O  0.49512240  0.96455118  0.24847074    -0.72900
O1124       O  0.44904924  0.91886258  0.24783060    -0.71700
Cu1125     Cu  0.56427690  0.93486487  0.25851049     1.04600
Cu1126     Cu  0.46751117  0.94200958  0.24784260     1.04300
C1127       C  0.48825338  0.90854618  0.25249769     0.94600
C1128       C  0.54833300  0.96805894  0.25313385     0.93800
C1129       C  0.49058008  0.93949986  0.31230164     0.85900
C1130       C  0.53542630  0.93704698  0.19340759     0.92200
O1131       O  0.38192168  0.83839281  0.25622088    -0.71500
O1132       O  0.33242420  0.79418014  0.25867919    -0.72500
O1133       O  0.37479797  0.81582753  0.30309269    -0.61100
O1134       O  0.34533362  0.81677075  0.21129976    -0.69600
O1135       O  0.43625394  0.80966675  0.20421873    -0.69100
O1136       O  0.46451960  0.80829634  0.29344034    -0.60400
O1137       O  0.42196590  0.78630459  0.24961823    -0.72900
O1138       O  0.47309533  0.83180516  0.24823873    -0.71700
Cu1139     Cu  0.35545674  0.81650973  0.25764470     1.04600
Cu1140     Cu  0.45205666  0.80871030  0.24862624     1.04300
C1141       C  0.43433763  0.84234174  0.25203246     0.94600
C1142       C  0.36836807  0.78316360  0.25416839     0.93800
C1143       C  0.42557868  0.81220556  0.31254122     0.85900
C1144       C  0.38738012  0.81353302  0.19321554     0.92200
O1145       O  0.56273966  0.45766673  0.74067616    -0.71500
O1146       O  0.52306053  0.41275541  0.74215648    -0.72500
O1147       O  0.55560205  0.43396302  0.69567394    -0.61100
O1148       O  0.52539147  0.43655793  0.78704551    -0.69600
O1149       O  0.43430379  0.44248174  0.77688479    -0.69100
O1150       O  0.46377697  0.43992362  0.68736375    -0.60400
O1151       O  0.43105408  0.41807300  0.73272402    -0.72900
O1152       O  0.47200735  0.46429936  0.73137114    -0.71700
Cu1153     Cu  0.54481051  0.43506859  0.74175238     1.04600
Cu1154     Cu  0.44703240  0.44142697  0.73183253     1.04300
C1155       C  0.52506280  0.46816878  0.73542436     0.94600
C1156       C  0.47155653  0.40812468  0.73743046     0.93800
C1157       C  0.51367453  0.43646624  0.67708646     0.85900
C1158       C  0.47413647  0.43972158  0.79633087     0.92200
O1159       O  0.37577041  0.33773108  0.73954593    -0.71500
O1160       O  0.32918557  0.29328220  0.74193862    -0.72500
O1161       O  0.37044639  0.31491975  0.78670034    -0.61100
O1162       O  0.33974482  0.31594960  0.69509106    -0.69600
O1163       O  0.43109476  0.30927646  0.68740838    -0.69100
O1164       O  0.46040299  0.30765839  0.77701756    -0.60400
O1165       O  0.41909322  0.28569801  0.73285715    -0.72900
O1166       O  0.46760181  0.33134653  0.73183808    -0.71700
Cu1167     Cu  0.35067369  0.31568736  0.74119825     1.04600
Cu1168     Cu  0.44772484  0.30821521  0.73201043     1.04300
C1169       C  0.42812252  0.34171119  0.73516698     0.94600
C1170       C  0.36560930  0.28240017  0.73723823     0.93800
C1171       C  0.42116072  0.31125828  0.79622777     0.85900
C1172       C  0.38158692  0.31291515  0.67678679     0.92200
O1173       O  0.32869448  0.45791638  0.98258253    -0.71500
O1174       O  0.36945993  0.41279643  0.97995058    -0.72500
O1175       O  0.33611540  0.43388721  0.02696101    -0.61100
O1176       O  0.36613049  0.43688224  0.93558065    -0.69600
O1177       O  0.45729267  0.44285490  0.94562311    -0.69100
O1178       O  0.42826283  0.43964736  0.03510310    -0.60400
O1179       O  0.46138790  0.41831632  0.98884176    -0.72900
O1180       O  0.41990167  0.46423987  0.99181236    -0.71700
Cu1181     Cu  0.34689269  0.43519283  0.98089275     1.04600
Cu1182     Cu  0.44484570  0.44150043  0.99061808     1.04300
C1183       C  0.36695844  0.46825584  0.98814028     0.94600
C1184       C  0.42137717  0.40826444  0.98396763     0.93800
C1185       C  0.37829524  0.43627870  0.04543775     0.85900
C1186       C  0.41738601  0.44003561  0.92625665     0.92200
O1187       O  0.56767500  0.29300356  0.98239275    -0.71500
O1188       O  0.52300082  0.33760874  0.98117717    -0.72500
O1189       O  0.55648275  0.31655893  0.02790001    -0.61100
O1190       O  0.52895768  0.31404436  0.93588827    -0.69600
O1191       O  0.43841581  0.30722592  0.94533623    -0.69100
O1192       O  0.46489896  0.31010541  0.03510622    -0.60400
O1193       O  0.43100441  0.33160764  0.98896926    -0.72900
O1194       O  0.47745274  0.28575655  0.99119800    -0.71700
Cu1195     Cu  0.54718541  0.31548631  0.98151664     1.04600
Cu1196     Cu  0.44979049  0.30840023  0.99041202     1.04300
C1197       C  0.53086807  0.28222837  0.98728100     0.94600
C1198       C  0.47075160  0.34184620  0.98489354     0.93800
C1199       C  0.51401848  0.31386729  0.04605854     0.85900
C1200       C  0.47817402  0.31055046  0.92622527     0.92200
O1201       O  0.55597290  0.16877387  0.48386235    -0.71500
O1202       O  0.50300312  0.21390812  0.48572478    -0.72500
O1203       O  0.54822893  0.19219602  0.52932276    -0.61100
O1204       O  0.51532802  0.19053817  0.44024821    -0.69600
O1205       O  0.42428432  0.18370280  0.44887073    -0.69100
O1206       O  0.45967545  0.18404119  0.53982759    -0.60400
O1207       O  0.41428265  0.20601389  0.49657033    -0.72900
O1208       O  0.46500885  0.16166718  0.49194045    -0.71700
Cu1209     Cu  0.53368959  0.19166188  0.48451267     1.04600
Cu1210     Cu  0.43767057  0.18360714  0.49473892     1.04300
C1211       C  0.51771925  0.15808968  0.48720123     0.94600
C1212       C  0.44971017  0.21706119  0.49101139     0.93800
C1213       C  0.51035588  0.18802964  0.54885587     0.85900
C1214       C  0.46541714  0.18687894  0.43022916     0.92200
O1215       O  0.56710281  0.03593580  0.49236368    -0.71500
O1216       O  0.52815745  0.08199259  0.48762602    -0.72500
O1217       O  0.56321706  0.05896097  0.44564175    -0.61100
O1218       O  0.52693482  0.05893027  0.53419019    -0.69600
O1219       O  0.61741675  0.06499310  0.54552650    -0.69100
O1220       O  0.65496026  0.06485824  0.45473251    -0.60400
O1221       O  0.61963797  0.08751474  0.49790678    -0.72900
O1222       O  0.65753558  0.04246669  0.50273542    -0.71700
Cu1223     Cu  0.54322860  0.05871694  0.48964173     1.04600
Cu1224     Cu  0.64059653  0.06512715  0.50065194     1.04300
C1225       C  0.61943653  0.03198380  0.49817658     0.94600
C1226       C  0.56851852  0.09204206  0.49175732     0.93800
C1227       C  0.61366555  0.06216530  0.43584882     0.85900
C1228       C  0.56547674  0.06207962  0.55407870     0.92200
O1229       O  0.55192552  0.08122420  0.74613150    -0.71500
O1230       O  0.50473426  0.03561389  0.74622074    -0.72500
O1231       O  0.54283243  0.05754788  0.70166124    -0.61100
O1232       O  0.51926884  0.05917559  0.79105007    -0.69600
O1233       O  0.42761574  0.06585612  0.78507433    -0.69100
O1234       O  0.45230195  0.06462184  0.69270628    -0.60400
O1235       O  0.41430463  0.04296640  0.73835704    -0.72900
O1236       O  0.45991116  0.08751861  0.73924283    -0.71700
Cu1237     Cu  0.53275379  0.05810885  0.74647084     1.04600
Cu1238     Cu  0.43524562  0.06543221  0.73854862     1.04300
C1239       C  0.51241404  0.09158075  0.74278169     0.94600
C1240       C  0.45121916  0.03215068  0.74256765     0.93800
C1241       C  0.50305393  0.06124293  0.68287973     0.85900
C1242       C  0.47073474  0.06286223  0.80264845     0.92200
O1243       O  0.52457215  0.16804824  0.74261416    -0.71500
O1244       O  0.56961827  0.21379375  0.74069769    -0.72500
O1245       O  0.53134298  0.19137396  0.69696409    -0.61100
O1246       O  0.55791413  0.19045511  0.78656968    -0.69600
O1247       O  0.65005332  0.18425798  0.77965767    -0.69100
O1248       O  0.62211267  0.18462313  0.68768075    -0.60400
O1249       O  0.66024286  0.20674322  0.73200940    -0.72900
O1250       O  0.61644576  0.16200077  0.73501357    -0.71700
Cu1251     Cu  0.54274764  0.19118929  0.74194873     1.04600
Cu1252     Cu  0.64044637  0.18420102  0.73329912     1.04300
C1253       C  0.56427141  0.15775860  0.73920886     0.94600
C1254       C  0.62269498  0.21742331  0.73604529     0.93800
C1255       C  0.57115197  0.18787680  0.67802319     0.85900
C1256       C  0.60734633  0.18709518  0.79755350     0.92200
O1257       O  0.52473174  0.58253385  0.98992415    -0.71500
O1258       O  0.56917854  0.53653500  0.98753234    -0.72500
O1259       O  0.53092798  0.55791617  0.03324375    -0.61100
O1260       O  0.55674664  0.56093773  0.94414014    -0.69600
O1261       O  0.64897043  0.56694073  0.95104691    -0.69100
O1262       O  0.62114716  0.56464478  0.04347632    -0.60400
O1263       O  0.65960721  0.54346350  0.99696121    -0.72900
O1264       O  0.61685342  0.58834498  0.99766069    -0.71700
Cu1265     Cu  0.54233242  0.55923716  0.98849409     1.04600
Cu1266     Cu  0.63993057  0.56604295  0.99763334     1.04300
C1267       C  0.56478316  0.59272454  0.99377904     0.94600
C1268       C  0.62237002  0.53283422  0.99171532     0.93800
C1269       C  0.57018198  0.56100406  0.05274232     0.85900
C1270       C  0.60590157  0.56444301  0.93310157     0.92200
O1271       O  0.42904436  0.68476370  0.95981113    -0.71500
O1272       O  0.45840445  0.68690448  0.05164635    -0.72500
O1273       O  0.41756796  0.70803164  0.00603519    -0.61100
O1274       O  0.46429080  0.66350160  0.00543048    -0.69600
O1275       O  0.55539967  0.66966064  0.99603047    -0.69100
O1276       O  0.50782300  0.71544058  0.99779582    -0.60400
O1277       O  0.54916673  0.69338583  0.04162555    -0.72900
O1278       O  0.51984746  0.69192364  0.95248155    -0.71700
Cu1279     Cu  0.43916286  0.68559286  0.00611852     1.04600
Cu1280     Cu  0.53617179  0.69288675  0.99677398     1.04300
C1281       C  0.47110244  0.68784244  0.94162734     0.94600
C1282       C  0.50953739  0.69029914  0.06092407     0.93800
C1283       C  0.45433885  0.71888341  0.00180042     0.85900
C1284       C  0.51602611  0.65928993  0.99993798     0.92200
O1285       O  0.41903530  0.56665807  0.28162739    -0.71500
O1286       O  0.45291904  0.56523366  0.18995721    -0.72500
O1287       O  0.40997519  0.54371453  0.23436514    -0.61100
O1288       O  0.45605808  0.58835759  0.23696254    -0.69600
O1289       O  0.54699613  0.58201261  0.24678481    -0.69100
O1290       O  0.49972134  0.53630042  0.24417073    -0.60400
O1291       O  0.54294483  0.55847243  0.20116340    -0.72900
O1292       O  0.51003094  0.55978084  0.28995429    -0.71700
Cu1293     Cu  0.43125599  0.56620164  0.23532051     1.04600
Cu1294     Cu  0.52795376  0.55885838  0.24579123     1.04300
C1295       C  0.46069788  0.56372195  0.30020466     0.94600
C1296       C  0.50444375  0.56177877  0.18137185     0.93800
C1297       C  0.44659562  0.53285965  0.23895002     0.85900
C1298       C  0.50788565  0.59242484  0.24273306     0.92200
O1299       O  0.61897839  0.68691090  0.19983787    -0.71500
O1300       O  0.64727484  0.68362596  0.29151430    -0.72500
O1301       O  0.61263997  0.66295989  0.24439217    -0.61100
O1302       O  0.65899635  0.70741875  0.24675305    -0.69600
O1303       O  0.56867109  0.71478287  0.25530518    -0.69100
O1304       O  0.52124857  0.66903665  0.25318769    -0.60400
O1305       O  0.55616621  0.69046131  0.29906533    -0.72900
O1306       O  0.52857713  0.69358745  0.20977611    -0.71700
Cu1307     Cu  0.63763206  0.68502298  0.24529835     1.04600
Cu1308     Cu  0.54052950  0.69222962  0.25462469     1.04300
C1309       C  0.56819800  0.69057673  0.19043050     0.94600
C1310       C  0.60519036  0.68649632  0.30978845     0.93800
C1311       C  0.56046531  0.65872679  0.24843112     0.85900
C1312       C  0.62220564  0.71819942  0.25153473     0.92200
O1313       O  0.40852552  0.95720085  0.75509658    -0.71500
O1314       O  0.70390665  0.91162775  0.75457697    -0.72500
O1315       O  0.39917144  0.93354725  0.70988021    -0.61100
O1316       O  0.71059982  0.93490706  0.80063296    -0.69600
O1317       O  0.61974650  0.94162868  0.79197424    -0.69100
O1318       O  0.64144099  0.93907815  0.70193370    -0.60400
O1319       O  0.61137103  0.91742099  0.74795780    -0.72900
O1320       O  0.65594571  0.96332703  0.74594793    -0.71700
Cu1321     Cu  0.38964462  0.93470143  0.75608969     1.04600
Cu1322     Cu  0.62896505  0.94063879  0.74677803     1.04300
C1323       C  0.37120707  0.96778492  0.74988416     0.94600
C1324       C  0.65173806  0.90728352  0.75113586     0.93800
C1325       C  0.69020109  0.93544815  0.69047916     0.85900
C1326       C  0.66003977  0.93830177  0.81077460     0.92200
O1327       O  0.60862770  0.80836302  0.70347283    -0.71500
O1328       O  0.63771287  0.80698207  0.79299872    -0.72500
O1329       O  0.59721419  0.78480852  0.74891644    -0.61100
O1330       O  0.64383477  0.83062713  0.74783940    -0.69600
O1331       O  0.55214360  0.83661869  0.75609613    -0.69100
O1332       O  0.50731390  0.79220288  0.75849904    -0.60400
O1333       O  0.54765489  0.81402041  0.80288880    -0.72900
O1334       O  0.51712498  0.81478895  0.71129352    -0.71700
Cu1335     Cu  0.62505001  0.80741470  0.74803394     1.04600
Cu1336     Cu  0.52795008  0.81460173  0.75750885     1.04300
C1337       C  0.55897566  0.81186085  0.69290146     0.94600
C1338       C  0.59864982  0.81061078  0.81228378     0.93800
C1339       C  0.54396091  0.78139211  0.75374461     0.85900
C1340       C  0.60418815  0.84088931  0.75191438     0.92200
O1341       O  0.64363990  0.94184327  0.96038866    -0.71500
O1342       O  0.61369347  0.94109289  0.05029049    -0.72500
O1343       O  0.64861847  0.91854448  0.00674033    -0.61100
O1344       O  0.60299745  0.96440804  0.00381696    -0.69600
O1345       O  0.51303707  0.95695858  0.99489688    -0.69100
O1346       O  0.55688495  0.91245172  0.99831083    -0.60400
O1347       O  0.52228630  0.93448370  0.04259295    -0.72900
O1348       O  0.55319516  0.93499535  0.95074035    -0.71700
Cu1349     Cu  0.63042180  0.94175478  0.00557160     1.04600
Cu1350     Cu  0.53323729  0.93453640  0.99628557     1.04300
C1351       C  0.60420688  0.93832370  0.94117827     0.94600
C1352       C  0.56425637  0.93742492  0.06095004     0.93800
C1353       C  0.60877672  0.90826587  0.00331624     0.85900
C1354       C  0.54972368  0.96783233  0.99902820     0.92200
O1355       O  0.41267153  0.79414024  0.99598255    -0.71500
O1356       O  0.70600624  0.83720567  0.99704508    -0.72500
O1357       O  0.40381972  0.81695402  0.04289536    -0.61100
O1358       O  0.70927854  0.81402464  0.95097359    -0.69600
O1359       O  0.61816448  0.80786223  0.96088132    -0.69100
O1360       O  0.64765144  0.80943457  0.05014908    -0.60400
O1361       O  0.61417794  0.83164807  0.00602654    -0.72900
O1362       O  0.65729397  0.78555229  0.00523868    -0.71700
Cu1363     Cu  0.39382265  0.81671535  0.99667572     1.04600
Cu1364     Cu  0.63111599  0.80834962  0.00580778     1.04300
C1365       C  0.37502766  0.78347106  0.99992046     0.94600
C1366       C  0.65448260  0.84173555  0.00200299     0.93800
C1367       C  0.69723158  0.81304448  0.06063029     0.85900
C1368       C  0.65790218  0.81100683  0.94165537     0.92200
O1369       O  0.65798051  0.53583154  0.74153830    -0.71500
O1370       O  0.38764202  0.58115810  0.74711226    -0.72500
O1371       O  0.67166056  0.55822183  0.78909532    -0.61100
O1372       O  0.37973717  0.55786260  0.70066470    -0.69600
O1373       O  0.61046920  0.56596376  0.69040359    -0.69100
O1374       O  0.58135086  0.56603825  0.78269100    -0.60400
O1375       O  0.61755462  0.58810897  0.73891578    -0.72900
O1376       O  0.56812123  0.54378121  0.73402844    -0.71700
Cu1377     Cu  0.36809435  0.55786996  0.74557349     1.04600
Cu1378     Cu  0.59109068  0.56618020  0.73616145     1.04300
C1379       C  0.60442122  0.53269775  0.73698330     0.94600
C1380       C  0.34822494  0.59159584  0.74394945     0.93800
C1381       C  0.62368978  0.56256420  0.80047324     0.85900
C1382       C  0.66132188  0.56247365  0.68078241     0.92200
O1383       O  0.40587724  0.71411610  0.75506443    -0.71500
O1384       O  0.35874103  0.66835062  0.75451376    -0.72500
O1385       O  0.39491401  0.68997054  0.79955037    -0.61100
O1386       O  0.36514415  0.69260080  0.71030244    -0.69600
O1387       O  0.45491104  0.68538320  0.70012147    -0.69100
O1388       O  0.48666128  0.68375164  0.79130622    -0.60400
O1389       O  0.45042792  0.66210071  0.74640922    -0.72900
O1390       O  0.49558784  0.70679533  0.74479186    -0.71700
Cu1391     Cu  0.37799666  0.69152552  0.75516507     1.04600
Cu1392     Cu  0.47503093  0.68429620  0.74530915     1.04300
C1393       C  0.45892008  0.71758787  0.74982291     0.94600
C1394       C  0.39813426  0.65799310  0.75069535     0.93800
C1395       C  0.44474035  0.68639303  0.80977891     0.85900
C1396       C  0.40430334  0.68926136  0.69087512     0.92200
O1397       O  0.44935259  0.56414070  0.54256234    -0.71500
O1398       O  0.47887370  0.56658524  0.45062818    -0.72500
O1399       O  0.44511147  0.58767328  0.49718842    -0.61100
O1400       O  0.48957437  0.54314118  0.49638509    -0.69600
O1401       O  0.39935090  0.53593897  0.48719013    -0.69100
O1402       O  0.35297998  0.58178565  0.48932708    -0.60400
O1403       O  0.38718068  0.56022913  0.44355386    -0.72900
O1404       O  0.35892127  0.55732988  0.53265462    -0.71700
Cu1405     Cu  0.46893481  0.56557456  0.49704671     1.04600
Cu1406     Cu  0.37149223  0.55855169  0.48789121     1.04300
C1407       C  0.39833281  0.56064658  0.55192692     0.94600
C1408       C  0.43625290  0.56387736  0.43253502     0.93800
C1409       C  0.39294047  0.59196098  0.49351529     0.85900
C1410       C  0.45275049  0.53241024  0.49127669     0.92200
O1411       O  0.59208049  0.68463420  0.46032441    -0.71500
O1412       O  0.62399089  0.68617027  0.55167112    -0.72500
O1413       O  0.58458939  0.70766294  0.50677260    -0.61100
O1414       O  0.62661363  0.66301762  0.50520826    -0.69600
O1415       O  0.38711350  0.66851071  0.49685842    -0.69100
O1416       O  0.67495394  0.71468372  0.49732013    -0.60400
O1417       O  0.38462617  0.69207986  0.54236811    -0.72900
O1418       O  0.68355260  0.69099422  0.45203739    -0.71700
Cu1419     Cu  0.60374328  0.68519308  0.50640314     1.04600
Cu1420     Cu  0.37027954  0.69177058  0.49759343     1.04300
C1421       C  0.63385136  0.68732413  0.44176077     0.94600
C1422       C  0.34505555  0.68914757  0.56180885     0.93800
C1423       C  0.62185688  0.71831629  0.50196462     0.85900
C1424       C  0.34719405  0.65836490  0.50130037     0.92200
O1425       O  0.62606564  0.44199761  0.44537243    -0.71500
O1426       O  0.59493232  0.44076517  0.53476132    -0.72500
O1427       O  0.62924522  0.41830157  0.49095745    -0.61100
O1428       O  0.58679958  0.46440351  0.48928302    -0.69600
O1429       O  0.49616008  0.45755110  0.48020344    -0.69100
O1430       O  0.53767707  0.41265448  0.48143747    -0.60400
O1431       O  0.50354334  0.43438317  0.52659962    -0.72900
O1432       O  0.53491297  0.43596335  0.43516287    -0.71700
Cu1433     Cu  0.61245499  0.44161797  0.49035157     1.04600
Cu1434     Cu  0.51494645  0.43495479  0.48047619     1.04300
C1435       C  0.58630602  0.43906503  0.42599046     0.94600
C1436       C  0.54524870  0.43718554  0.54516997     0.93800
C1437       C  0.58916927  0.40816234  0.48675605     0.85900
C1438       C  0.53377676  0.46816308  0.48475449     0.92200
O1439       O  0.35986602  0.33692931  0.48093386    -0.71500
O1440       O  0.40289646  0.29198428  0.48019018    -0.72500
O1441       O  0.36441129  0.31353096  0.43467185    -0.61100
O1442       O  0.39382775  0.31523404  0.52636383    -0.69600
O1443       O  0.63271479  0.30870692  0.53554385    -0.69100
O1444       O  0.60090579  0.30767572  0.44652697    -0.60400
O1445       O  0.31253275  0.28486376  0.48903833    -0.72900
O1446       O  0.59683522  0.33118516  0.49216225    -0.71700
Cu1447     Cu  0.38340258  0.31460547  0.48016973     1.04600
Cu1448     Cu  0.61510344  0.30788441  0.49129747     1.04300
C1449       C  0.63645752  0.34146147  0.48795240     0.94600
C1450       C  0.36576964  0.28124148  0.48482812     0.93800
C1451       C  0.64012042  0.31106371  0.42717978     0.85900
C1452       C  0.35187355  0.31234382  0.54470421     0.92200
O1453       O  0.35938766  0.41283775  0.24059819    -0.71500
O1454       O  0.40319670  0.45762233  0.24292536    -0.72500
O1455       O  0.36454106  0.43563316  0.28759687    -0.61100
O1456       O  0.39311451  0.43478899  0.19570339    -0.69600
O1457       O  0.63284589  0.44186351  0.18774190    -0.69100
O1458       O  0.60551422  0.44421604  0.27725692    -0.60400
O1459       O  0.64726347  0.46566406  0.23217664    -0.72900
O1460       O  0.59622487  0.42016686  0.23293172    -0.71700
Cu1461     Cu  0.38324680  0.43504108  0.24201971     1.04600
Cu1462     Cu  0.61731330  0.44326658  0.23227654     1.04300
C1463       C  0.63509437  0.40964535  0.23656634     0.94600
C1464       C  0.36593965  0.46839177  0.23897770     0.93800
C1465       C  0.64459813  0.44044714  0.29643734     0.85900
C1466       C  0.35087727  0.43774900  0.17755137     0.92200
O1467       O  0.53165393  0.33899104  0.24273838    -0.71500
O1468       O  0.48979264  0.29402766  0.24374416    -0.72500
O1469       O  0.52818880  0.31568346  0.28886761    -0.61100
O1470       O  0.49825351  0.31720689  0.19695725    -0.69600
O1471       O  0.59007363  0.31108818  0.18929158    -0.69100
O1472       O  0.61858452  0.30911382  0.27865610    -0.60400
O1473       O  0.58027639  0.28713119  0.23405166    -0.72900
O1474       O  0.62341441  0.33315786  0.23419226    -0.71700
Cu1475     Cu  0.50874217  0.31666592  0.24338204     1.04600
Cu1476     Cu  0.60620927  0.30988464  0.23377760     1.04300
C1477       C  0.58362442  0.34336342  0.23842151     0.94600
C1478       C  0.52737982  0.28342362  0.23904900     0.93800
C1479       C  0.57927177  0.31224483  0.29811582     0.85900
C1480       C  0.54048739  0.31454474  0.17861437     0.92200
O1481       O  0.49114636  0.06560576  0.95331952    -0.71500
O1482       O  0.45934619  0.06504496  0.04501038    -0.72500
O1483       O  0.50254553  0.04316906  0.00120806    -0.61100
O1484       O  0.45274081  0.08746368  0.99745619    -0.69600
O1485       O  0.36203072  0.08050613  0.98891146    -0.69100
O1486       O  0.41325262  0.03521994  0.99199473    -0.60400
O1487       O  0.36997940  0.05737629  0.03495413    -0.72900
O1488       O  0.40031435  0.05833456  0.94568317    -0.71700
Cu1489     Cu  0.47965585  0.06553503  0.99958451     1.04600
Cu1490     Cu  0.38337964  0.05754157  0.99009826     1.04300
C1491       C  0.44931915  0.06238712  0.93506923     0.94600
C1492       C  0.40849319  0.06137598  0.05428200     0.93800
C1493       C  0.46664195  0.03208524  0.99704106     0.85900
C1494       C  0.40019987  0.09118879  0.99270389     0.92200
O1495       O  0.33001271  0.21283932  0.98745241    -0.71500
O1496       O  0.37916558  0.16749783  0.98581922    -0.72500
O1497       O  0.34204340  0.18959121  0.94188630    -0.61100
O1498       O  0.37171301  0.19097100  0.03103587    -0.69600
O1499       O  0.28180919  0.18366854  0.04101528    -0.69100
O1500       O  0.25109873  0.18255154  0.94918184    -0.60400
O1501       O  0.28799909  0.16068253  0.99396573    -0.72900
O1502       O  0.24013896  0.20525430  0.99645860    -0.71700
Cu1503     Cu  0.35876993  0.19048311  0.98626638     1.04600
Cu1504     Cu  0.26202774  0.18279145  0.99550425     1.04300
C1505       C  0.27668985  0.21616268  0.99207502     0.94600
C1506       C  0.34062645  0.15691838  0.98957893     0.93800
C1507       C  0.29286145  0.18590406  0.93099037     0.85900
C1508       C  0.33256731  0.18744136  0.05031632     0.92200
O1509       O  0.38815044  0.08222677  0.24840330    -0.71500
O1510       O  0.34537019  0.03587255  0.24669445    -0.72500
O1511       O  0.38528042  0.05846523  0.20290941    -0.61100
O1512       O  0.35443669  0.05940908  0.29206050    -0.69600
O1513       O  0.60098194  0.06529706  0.28597233    -0.69100
O1514       O  0.29461350  0.06477823  0.19250440    -0.60400
O1515       O  0.59224744  0.04249967  0.23937605    -0.72900
O1516       O  0.29629883  0.08765318  0.23933379    -0.71700
Cu1517     Cu  0.37154032  0.05874466  0.24776049     1.04600
Cu1518     Cu  0.60976238  0.06506101  0.23967297     1.04300
C1519       C  0.34770601  0.09228895  0.24427855     0.94600
C1520       C  0.63032186  0.03200987  0.24370680     0.93800
C1521       C  0.34613491  0.06172754  0.18341646     0.85900
C1522       C  0.30453615  0.06261182  0.30254085     0.92200
O1523       O  0.47652150  0.18606845  0.28017315    -0.71500
O1524       O  0.44407866  0.18640819  0.18876349    -0.72500
O1525       O  0.48382942  0.20865675  0.23240619    -0.61100
O1526       O  0.44251371  0.16375325  0.23620889    -0.69600
O1527       O  0.35064751  0.16939837  0.24493552    -0.69100
O1528       O  0.39350057  0.21559216  0.24235192    -0.60400
O1529       O  0.35366209  0.19299306  0.19897480    -0.72900
O1530       O  0.38483093  0.19216076  0.28810564    -0.71700
Cu1531     Cu  0.46489168  0.18604813  0.23401453     1.04600
Cu1532     Cu  0.36748164  0.19279672  0.24383468     1.04300
C1533       C  0.43459677  0.18880903  0.29863185     0.94600
C1534       C  0.39277464  0.18961325  0.17955184     0.93800
C1535       C  0.44635751  0.21928306  0.23706997     0.85900
C1536       C  0.39101980  0.15926453  0.24149170     0.92200
C1537       C  0.32286656  0.13630556  0.24153879     0.25000
C1538       C  0.37940382  0.14218994  0.24357115    -0.23100
C1539       C  0.42553466  0.13149590  0.24710966     0.19900
C1540       C  0.41546107  0.11537038  0.24775539     0.24900
C1541       C  0.35902137  0.10944630  0.24490659    -0.23100
C1542       C  0.31274515  0.12019452  0.24217132     0.19800
F1543       F  0.25715675  0.11521770  0.23987479    -0.13000
F1544       F  0.27710006  0.14609470  0.23823534    -0.15400
F1545       F  0.46132421  0.10560543  0.25089459    -0.15400
F1546       F  0.48085200  0.13658324  0.25016206    -0.13000
C1547       C  0.30441376  0.18970547  0.10578471     0.25000
C1548       C  0.34740299  0.18778474  0.08341274    -0.23100
C1549       C  0.40562322  0.18662173  0.09287402     0.19900
C1550       C  0.42039215  0.18729579  0.12392482     0.24900
C1551       C  0.37743742  0.18920681  0.14641187    -0.23100
C1552       C  0.31913745  0.19047595  0.13687432     0.19800
F1553       F  0.27584783  0.19242694  0.15754510    -0.13000
F1554       F  0.24810868  0.19123969  0.09756527    -0.15400
F1555       F  0.47699064  0.18614528  0.13183276    -0.15400
F1556       F  0.44869084  0.18460580  0.07209315    -0.13000
C1557       C  0.33417786  0.06133113  0.09648382     0.25000
C1558       C  0.39282036  0.06184742  0.08736708    -0.23100
C1559       C  0.43557720  0.06284405  0.11018155     0.19900
C1560       C  0.42034309  0.06287871  0.14123251     0.24900
C1561       C  0.36175608  0.06204495  0.15033727    -0.23100
C1562       C  0.31893772  0.06147236  0.12752006     0.19800
F1563       F  0.26208956  0.06080043  0.13513197    -0.13000
F1564       F  0.29100277  0.06084362  0.07539466    -0.15400
F1565       F  0.46335142  0.06391855  0.16234444    -0.15400
F1566       F  0.49239728  0.06362621  0.10257003    -0.13000
C1567       C  0.41149047  0.13536852  0.99891935     0.25000
C1568       C  0.35639005  0.14017496  0.98934138    -0.23100
C1569       C  0.31547655  0.12876563  0.98078910     0.19900
C1570       C  0.32944095  0.11287401  0.98181475     0.24900
C1571       C  0.38455547  0.10801541  0.99163568    -0.23100
C1572       C  0.42535116  0.11950922  0.00026444     0.19800
F1573       F  0.47863321  0.11549053  0.01069758    -0.13000
F1574       F  0.45151227  0.14599622  0.00810917    -0.15400
F1575       F  0.28896140  0.10230512  0.97294671    -0.15400
F1576       F  0.26199729  0.13297985  0.97094622    -0.13000
C1577       C  0.45965070  0.26236086  0.25666367     0.25000
C1578       C  0.50814953  0.26688057  0.23915688    -0.23100
C1579       C  0.53550548  0.25566529  0.22066848     0.19900
C1580       C  0.51455683  0.24031795  0.21950539     0.24900
C1581       C  0.46577645  0.23582319  0.23686247    -0.23100
C1582       C  0.43861429  0.24703312  0.25544325     0.19800
F1583       F  0.39289893  0.24305034  0.27332469    -0.13000
F1584       F  0.43323544  0.27271379  0.27563745    -0.15400
F1585       F  0.54146984  0.22991718  0.20083217    -0.15400
F1586       F  0.58142562  0.25964735  0.20292383    -0.13000
C1587       C  0.66223976  0.38184539  0.22655000     0.25000
C1588       C  0.62060263  0.39281173  0.23622571    -0.23100
C1589       C  0.56692971  0.38742690  0.24682914     0.19900
C1590       C  0.55517039  0.37139362  0.24789156     0.24900
C1591       C  0.59683555  0.36036642  0.23809620    -0.23100
C1592       C  0.65052040  0.36584435  0.22744992     0.19800
F1593       F  0.37300341  0.35429307  0.23384014    -0.13000
F1594       F  0.39584149  0.38504435  0.23378686    -0.15400
F1595       F  0.50320937  0.36673065  0.25912088    -0.15400
F1596       F  0.52651706  0.39763624  0.25723131    -0.13000
C1597       C  0.34169482  0.30819830  0.36970021     0.25000
C1598       C  0.62476914  0.31153379  0.39425632    -0.23100
C1599       C  0.56769605  0.31497772  0.38503635     0.19900
C1600       C  0.55271172  0.31524697  0.35394493     0.24900
C1601       C  0.59434322  0.31196774  0.33131582    -0.23100
C1602       C  0.65158630  0.30860656  0.34074551     0.19800
F1603       F  0.37060359  0.30628113  0.31783195    -0.13000
F1604       F  0.39749548  0.30563580  0.37795522    -0.15400
F1605       F  0.49747065  0.31883718  0.34613738    -0.15400
F1606       F  0.52641815  0.31845753  0.40610031    -0.13000
C1607       C  0.67206243  0.43657832  0.35188486     0.25000
C1608       C  0.63004808  0.44030169  0.32972823    -0.23100
C1609       C  0.57297612  0.44342090  0.33969644     0.19900
C1610       C  0.55863291  0.44283627  0.37083405     0.24900
C1611       C  0.60080635  0.43926127  0.39287318    -0.23100
C1612       C  0.65772110  0.43613191  0.38304512     0.19800
F1613       F  0.37158103  0.43817174  0.40493227    -0.13000
F1614       F  0.39907713  0.43844837  0.34491824    -0.15400
F1615       F  0.50358665  0.44614788  0.37943928    -0.15400
F1616       F  0.53043792  0.44698647  0.31940404    -0.13000
C1617       C  0.65822479  0.38549168  0.49084991     0.25000
C1618       C  0.60134819  0.39109410  0.48805812    -0.23100
C1619       C  0.55566124  0.38012738  0.48642749     0.19900
C1620       C  0.56675045  0.36406193  0.48689668     0.24900
C1621       C  0.62371268  0.35848386  0.48897044    -0.23100
C1622       C  0.66928018  0.36943580  0.49127293     0.19800
F1623       F  0.39626964  0.36476815  0.49029417    -0.13000
F1624       F  0.37349801  0.39557878  0.49067462    -0.15400
F1625       F  0.52154877  0.35400552  0.48460791    -0.15400
F1626       F  0.49980040  0.38485963  0.48427677    -0.13000
C1627       C  0.52918055  0.51189959  0.50024270     0.25000
C1628       C  0.47332822  0.51595047  0.48967905    -0.23100
C1629       C  0.43875622  0.50423139  0.47654808     0.19900
C1630       C  0.45887239  0.48885842  0.47444968     0.24900
C1631       C  0.51441174  0.48475264  0.48534507    -0.23100
C1632       C  0.54944429  0.49652882  0.49800978     0.19800
F1633       F  0.60297146  0.49317246  0.50897956    -0.13000
F1634       F  0.56435278  0.52275084  0.51323047    -0.15400
F1635       F  0.42373087  0.47803228  0.46137223    -0.15400
F1636       F  0.38571538  0.50765579  0.46505147    -0.13000
C1637       C  0.65229597  0.61463407  0.49615366     0.25000
C1638       C  0.38013699  0.60887152  0.49455361    -0.23100
C1639       C  0.42338989  0.61979617  0.48678434     0.19900
C1640       C  0.41316797  0.63582183  0.48934544     0.24900
C1641       C  0.35937724  0.64134550  0.49972765    -0.23100
C1642       C  0.64259106  0.63069173  0.49849063     0.19800
F1643       F  0.58726895  0.63560293  0.50241126    -0.13000
F1644       F  0.60651646  0.60478150  0.49863801    -0.15400
F1645       F  0.45599189  0.64587435  0.48132283    -0.15400
F1646       F  0.47568138  0.61499177  0.47622661    -0.13000
C1647       C  0.64680601  0.69150339  0.61630009     0.25000
C1648       C  0.36001238  0.68927321  0.59473414    -0.23100
C1649       C  0.41594255  0.68498472  0.60437067     0.19900
C1650       C  0.43064465  0.68512660  0.63545371     0.24900
C1651       C  0.38984687  0.68968218  0.65766193    -0.23100
C1652       C  0.66093517  0.69151252  0.64750007     0.19800
F1653       F  0.61742397  0.69335734  0.66807630    -0.13000
F1654       F  0.59080495  0.69369445  0.60799165    -0.15400
F1655       F  0.48473995  0.68061068  0.64367353    -0.15400
F1656       F  0.45624048  0.68024476  0.58373354    -0.13000
C1657       C  0.41281051  0.56027396  0.63862980     0.25000
C1658       C  0.35458266  0.56132840  0.64832815    -0.23100
C1659       C  0.63349747  0.56418919  0.62491897     0.19900
C1660       C  0.64796956  0.56359983  0.59374689     0.24900
C1661       C  0.38344172  0.56071293  0.58507954    -0.23100
C1662       C  0.42687681  0.55996096  0.60746234     0.19800
F1663       F  0.48317492  0.55861658  0.59921086    -0.13000
F1664       F  0.45675318  0.55965358  0.65924870    -0.15400
F1665       F  0.60491593  0.56517062  0.57279440    -0.15400
F1666       F  0.57729962  0.56613246  0.63288780    -0.13000
C1667       C  0.64101373  0.61983318  0.75199743     0.25000
C1668       C  0.36122729  0.60861030  0.74627367    -0.23100
C1669       C  0.41545388  0.61396661  0.75644282     0.19900
C1670       C  0.42678772  0.63000144  0.75858107     0.24900
C1671       C  0.38415473  0.64109024  0.75072606    -0.23100
C1672       C  0.65442235  0.63574355  0.75328850     0.19800
F1673       F  0.61068232  0.64613333  0.75716692    -0.13000
F1674       F  0.58482891  0.61552219  0.75517929    -0.15400
F1675       F  0.47945664  0.63467525  0.76884719    -0.15400
F1676       F  0.45752178  0.60374015  0.76469926    -0.13000
C1677       C  0.56701832  0.99686655  0.00374059     0.25000
C1678       C  0.52903171  0.98432961  0.99843112    -0.23100
C1679       C  0.47002684  0.98769073  0.99296360     0.19900
C1680       C  0.44982283  0.00307967  0.99276239     0.24900
C1681       C  0.48783790  0.01563604  0.99786316    -0.23100
C1682       C  0.54682759  0.01229119  0.00342571     0.19800
F1683       F  0.58554712  0.02391760  0.00866371    -0.13000
F1684       F  0.62389685  0.99427607  0.00944876    -0.15400
F1685       F  0.39271504  0.00558687  0.98749084    -0.15400
F1686       F  0.43111557  0.97610174  0.98778014    -0.13000
C1687       C  0.68761452  0.86965174  0.99738431     0.25000
C1688       C  0.64276557  0.85879456  0.00323136    -0.23100
C1689       C  0.58751413  0.86450964  0.01063669     0.19900
C1690       C  0.57704702  0.88057960  0.01141851     0.24900
C1691       C  0.62154271  0.89135152  0.00476975    -0.23100
C1692       C  0.67705199  0.88570522  0.99821176     0.19800
F1693       F  0.72094257  0.89568711  0.99157569    -0.13000
F1694       F  0.74198529  0.86484491  0.99042407    -0.15400
F1695       F  0.52316763  0.88556922  0.01899447    -0.15400
F1696       F  0.54333776  0.85461277  0.01722381    -0.13000
C1697       C  0.55407634  0.75330957  0.73772498     0.25000
C1698       C  0.52308441  0.76497976  0.75327458    -0.23100
C1699       C  0.46964776  0.76102601  0.76692190     0.19900
C1700       C  0.44799998  0.74578470  0.76517615     0.24900
C1701       C  0.47938651  0.73405597  0.74998252    -0.23100
C1702       C  0.53248916  0.73806104  0.73602610     0.19800
F1703       F  0.56334463  0.72728575  0.72008976    -0.13000
F1704       F  0.60454792  0.75671209  0.72331224    -0.15400
F1705       F  0.39688424  0.74248463  0.77903428    -0.15400
F1706       F  0.43837006  0.77186260  0.78247419    -0.13000
C1707       C  0.57123935  0.81383180  0.86787597     0.25000
C1708       C  0.61370206  0.81098096  0.84547351    -0.23100
C1709       C  0.67149608  0.80867688  0.85513329     0.19900
C1710       C  0.68594444  0.80883356  0.88625795     0.24900
C1711       C  0.64324236  0.81127671  0.90857172    -0.23100
C1712       C  0.58577416  0.81392864  0.89901070     0.19800
F1713       F  0.54345806  0.81692221  0.91977481    -0.13000
F1714       F  0.51545901  0.81657239  0.85981271    -0.15400
F1715       F  0.74170517  0.80622565  0.89452972    -0.15400
F1716       F  0.71463303  0.80631014  0.83454799    -0.13000
C1717       C  0.58829809  0.93861631  0.85429745     0.25000
C1718       C  0.64642526  0.93817841  0.84424799    -0.23100
C1719       C  0.69035738  0.93745710  0.86650113     0.19900
C1720       C  0.67669900  0.93745395  0.89784886     0.24900
C1721       C  0.61856101  0.93808627  0.90782517    -0.23100
C1722       C  0.57467241  0.93855527  0.88556029     0.19800
F1723       F  0.51819903  0.93919777  0.89392619    -0.13000
F1724       F  0.54394194  0.93893026  0.83390003    -0.15400
F1725       F  0.37581890  0.94128266  0.91836085    -0.15400
F1726       F  0.40371357  0.94201576  0.85854569    -0.13000
C1727       C  0.67179040  0.86351588  0.74320641     0.25000
C1728       C  0.61711172  0.85787118  0.75187477    -0.23100
C1729       C  0.57380406  0.86873689  0.76025905     0.19900
C1730       C  0.58471513  0.88476013  0.75956710     0.24900
C1731       C  0.63921538  0.89036013  0.75086620    -0.23100
C1732       C  0.68273577  0.87957005  0.74274228     0.19800
F1733       F  0.40512851  0.88529262  0.74363153    -0.13000
F1734       F  0.71471396  0.85357174  0.73485787    -0.15400
F1735       F  0.54225251  0.89475997  0.76832385    -0.15400
F1736       F  0.52070519  0.86395303  0.76965731    -0.13000
C1737       C  0.66749720  0.68406140  0.35684392     0.25000
C1738       C  0.61236254  0.68554629  0.34359402    -0.23100
C1739       C  0.56377602  0.68666874  0.36315076     0.19900
C1740       C  0.57050996  0.68699820  0.39498620     0.24900
C1741       C  0.62583240  0.68615547  0.40812578    -0.23100
C1742       C  0.67416887  0.68438540  0.38867583     0.19800
F1743       F  0.39496934  0.69176787  0.40011394    -0.13000
F1744       F  0.71538115  0.68257166  0.33909638    -0.15400
F1745       F  0.52281188  0.68859020  0.41284721    -0.15400
F1746       F  0.50932733  0.68754379  0.35162278    -0.13000
C1747       C  0.49622102  0.56771231  0.38481503     0.25000
C1748       C  0.44237317  0.56476585  0.39859536    -0.23100
C1749       C  0.39373048  0.56237073  0.37940952     0.19900
C1750       C  0.39924530  0.56244994  0.34750311     0.24900
C1751       C  0.45334623  0.56484101  0.33387149    -0.23100
C1752       C  0.50165552  0.56772037  0.35287315     0.19800
F1753       F  0.55448614  0.57064073  0.34055575    -0.13000
F1754       F  0.54399950  0.57041684  0.40211625    -0.15400
F1755       F  0.35186369  0.55956627  0.33001413    -0.15400
F1756       F  0.34045995  0.55969100  0.39134045    -0.13000
C1757       C  0.35124917  0.49697919  0.22714194     0.25000
C1758       C  0.38571345  0.48496775  0.23938832    -0.23100
C1759       C  0.44074870  0.48887272  0.25123307     0.19900
C1760       C  0.46072800  0.50430547  0.25075282     0.24900
C1761       C  0.42634102  0.51632387  0.23852073    -0.23100
C1762       C  0.37125411  0.51243301  0.22665650     0.19800
F1763       F  0.33665251  0.52352868  0.21406305    -0.13000
F1764       F  0.29851346  0.49378540  0.21495868    -0.15400
F1765       F  0.51352568  0.50746162  0.26288313    -0.15400
F1766       F  0.47541937  0.47779110  0.26380659    -0.13000
C1767       C  0.48956873  0.63637247  0.25096291     0.25000
C1768       C  0.54665989  0.64174750  0.24747783    -0.23100
C1769       C  0.59111128  0.63062543  0.24296123     0.19900
C1770       C  0.57869920  0.61466269  0.24176751     0.24900
C1771       C  0.52160754  0.60933177  0.24483578    -0.23100
C1772       C  0.47719837  0.62038724  0.24965540     0.19800
F1773       F  0.42151549  0.61577119  0.25358316    -0.13000
F1774       F  0.44536466  0.64653394  0.25559826    -0.15400
F1775       F  0.62272700  0.60446783  0.23693950    -0.15400
F1776       F  0.64706903  0.63508624  0.23947363    -0.13000
C1777       C  0.50613053  0.68958282  0.85653096     0.25000
C1778       C  0.45298975  0.68554157  0.84329331    -0.23100
C1779       C  0.40640256  0.68145252  0.86249842     0.19900
C1780       C  0.41223572  0.68195879  0.89438458     0.24900
C1781       C  0.46474817  0.68667418  0.90779437    -0.23100
C1782       C  0.51203139  0.69019021  0.88836133     0.19800
F1783       F  0.56421882  0.69445275  0.89993884    -0.13000
F1784       F  0.55192080  0.69358390  0.83869747    -0.15400
F1785       F  0.36628966  0.67785138  0.91198788    -0.15400
F1786       F  0.35508622  0.67681248  0.85039119    -0.13000
C1787       C  0.47118335  0.74756088  0.99239625     0.25000
C1788       C  0.43390345  0.73540866  0.00125667    -0.23100
C1789       C  0.37611408  0.73918926  0.00889727     0.19900
C1790       C  0.35665164  0.75468207  0.00807149     0.24900
C1791       C  0.39430481  0.76685323  0.99964492    -0.23100
C1792       C  0.45178926  0.76302471  0.99158096     0.19800
F1793       F  0.48978867  0.77421867  0.98259177    -0.13000
F1794       F  0.52654815  0.74453460  0.98401794    -0.15400
F1795       F  0.63272338  0.75578486  0.00755791    -0.15400
F1796       F  0.33798750  0.72793656  0.01744159    -0.13000
C1797       C  0.58169771  0.68791424  0.10366020     0.25000
C1798       C  0.52426744  0.69056236  0.09402031    -0.23100
C1799       C  0.48195249  0.69367499  0.11621770     0.19900
C1800       C  0.49642367  0.69397400  0.14736014     0.24900
C1801       C  0.55377537  0.69103995  0.15715189    -0.23100
C1802       C  0.59619256  0.68809709  0.13479798     0.19800
F1803       F  0.65183017  0.68524571  0.14294500    -0.13000
F1804       F  0.62398302  0.68476472  0.08297226    -0.15400
F1805       F  0.45372677  0.69707025  0.16783337    -0.15400
F1806       F  0.42662513  0.69677926  0.10779311    -0.13000
C1807       C  0.66889775  0.56213119  0.85303376     0.25000
C1808       C  0.61904649  0.56378987  0.83443661    -0.23100
C1809       C  0.56589363  0.56689563  0.84876516     0.19900
C1810       C  0.56214968  0.56757956  0.88075389     0.24900
C1811       C  0.61157656  0.56526504  0.89926646    -0.23100
C1812       C  0.66509619  0.56286590  0.88498475     0.19800
F1813       F  0.71370093  0.56069001  0.90191022    -0.13000
F1814       F  0.40206700  0.55941119  0.84231348    -0.15400
F1815       F  0.50985193  0.57059032  0.89357664    -0.15400
F1816       F  0.51725235  0.56918094  0.83193950    -0.13000
C1817       C  0.57860193  0.56475751  0.13974637     0.25000
C1818       C  0.52102338  0.56159075  0.14853016    -0.23100
C1819       C  0.48062860  0.55772522  0.12581779     0.19900
C1820       C  0.49710090  0.55712773  0.09499345     0.24900
C1821       C  0.55449164  0.56066627  0.08593149    -0.23100
C1822       C  0.59508180  0.56436991  0.10884660     0.19800
F1823       F  0.65074801  0.56773041  0.10151027    -0.13000
F1824       F  0.61902511  0.56857542  0.16106867    -0.15400
F1825       F  0.45626644  0.55302835  0.07410638    -0.15400
F1826       F  0.42535362  0.55407177  0.13347271    -0.13000
C1827       C  0.49559293  0.61513169  0.99980277     0.25000
C1828       C  0.55181457  0.60972830  0.99404381    -0.23100
C1829       C  0.59626785  0.62079860  0.98931487     0.19900
C1830       C  0.58495374  0.63684446  0.99112432     0.24900
C1831       C  0.52891168  0.64226422  0.99774950    -0.23100
C1832       C  0.48422064  0.63113879  0.00163059     0.19800
F1833       F  0.42898462  0.63563759  0.00732014    -0.13000
F1834       F  0.45147896  0.60493252  0.00441798    -0.15400
F1835       F  0.62904265  0.64701686  0.98619170    -0.15400
F1836       F  0.65088038  0.61614593  0.98247426    -0.13000
C1837       C  0.33310596  0.18886167  0.87769109     0.25000
C1838       C  0.28543831  0.18573003  0.89709385    -0.23100
C1839       C  0.57153414  0.18271181  0.88193009     0.19900
C1840       C  0.56681109  0.18238054  0.84996294     0.24900
C1841       C  0.61400690  0.18659941  0.83125568    -0.23100
C1842       C  0.66617868  0.19099263  0.84513009     0.19800
F1843       F  0.37300104  0.19280933  0.82822204    -0.13000
F1844       F  0.38660107  0.19166406  0.88929309    -0.15400
F1845       F  0.51604440  0.17768738  0.83729550    -0.15400
F1846       F  0.52507191  0.17842949  0.89898677    -0.13000
C1847       C  0.41238899  0.06672391  0.85080790     0.25000
C1848       C  0.46565806  0.06352846  0.83663065    -0.23100
C1849       C  0.51457941  0.06079319  0.85543367     0.19900
C1850       C  0.50973618  0.06075250  0.88739093     0.24900
C1851       C  0.45609981  0.06341765  0.90138109    -0.23100
C1852       C  0.40767635  0.06664611  0.88275339     0.19800
F1853       F  0.35547123  0.06989996  0.89546982    -0.13000
F1854       F  0.36447358  0.06982850  0.83388558    -0.15400
F1855       F  0.55721637  0.05753083  0.90457192    -0.15400
F1856       F  0.56741156  0.05796374  0.84307587    -0.13000
C1857       C  0.35185852  0.99660621  0.74343630     0.25000
C1858       C  0.39118668  0.98430266  0.74793201    -0.23100
C1859       C  0.45077149  0.98790452  0.75002669     0.19900
C1860       C  0.47022250  0.00332403  0.74795083     0.24900
C1861       C  0.43089053  0.01564891  0.74372991    -0.23100
C1862       C  0.37133823  0.01205270  0.74136624     0.19800
F1863       F  0.33131290  0.02346196  0.73722120    -0.13000
F1864       F  0.29427471  0.99377964  0.74109632    -0.15400
F1865       F  0.52787980  0.00609511  0.75014540    -0.15400
F1866       F  0.49097769  0.97652173  0.75397456    -0.13000
C1867       C  0.59345006  0.12965083  0.73248576     0.25000
C1868       C  0.55077822  0.14080322  0.74021270    -0.23100
C1869       C  0.49578339  0.13549613  0.74923885     0.19900
C1870       C  0.48377149  0.11951551  0.75045449     0.24900
C1871       C  0.52644098  0.10843087  0.74271776    -0.23100
C1872       C  0.58138341  0.11367555  0.73380453     0.19800
F1873       F  0.62307616  0.10337088  0.72537497    -0.13000
F1874       F  0.64695115  0.13410971  0.72312087    -0.15400
F1875       F  0.43032627  0.11491685  0.75968431    -0.15400
F1876       F  0.45349434  0.14571076  0.75723062    -0.13000
C1877       C  0.58307860  0.06684917  0.35109364     0.25000
C1878       C  0.63652002  0.06286723  0.33783796    -0.23100
C1879       C  0.34420378  0.06179773  0.35626613     0.19900
C1880       C  0.67645605  0.05921504  0.38932400     0.24900
C1881       C  0.62273620  0.06288013  0.40233769    -0.23100
C1882       C  0.57630010  0.06684016  0.38289777     0.19800
F1883       F  0.52412487  0.07095389  0.39467892    -0.13000
F1884       F  0.53701534  0.07078367  0.33340619    -0.15400
F1885       F  0.38384692  0.06040119  0.40633019    -0.15400
F1886       F  0.39897349  0.06070634  0.34526436    -0.13000
C1887       C  0.57604842  0.06379418  0.64082829     0.25000
C1888       C  0.51784730  0.06187593  0.64984045    -0.23100
C1889       C  0.47523769  0.06051386  0.62709412     0.19900
C1890       C  0.49055130  0.06070717  0.59604567     0.24900
C1891       C  0.54905723  0.06229071  0.58703018    -0.23100
C1892       C  0.59139579  0.06398909  0.60989809     0.19800
F1893       F  0.64802240  0.06575787  0.60250711    -0.13000
F1894       F  0.61858673  0.06572536  0.66197523    -0.15400
F1895       F  0.44771891  0.05933237  0.57491053    -0.15400
F1896       F  0.41883606  0.05862377  0.63483452    -0.13000
C1897       C  0.40268519  0.19061779  0.38409963     0.25000
C1898       C  0.45627122  0.18651393  0.39675948    -0.23100
C1899       C  0.50249725  0.18280461  0.37705319     0.19900
C1900       C  0.49562811  0.18347315  0.34526100     0.24900
C1901       C  0.44237368  0.18796897  0.33240798    -0.23100
C1902       C  0.39574501  0.19139531  0.35232429     0.19800
F1903       F  0.34320766  0.19569686  0.34127035    -0.13000
F1904       F  0.35746943  0.19447044  0.40245596    -0.15400
F1905       F  0.54124832  0.17965036  0.32719264    -0.15400
F1906       F  0.55446086  0.17831713  0.38857384    -0.13000
C1907       C  0.37107847  0.23723699  0.49900567     0.25000
C1908       C  0.42811383  0.23348770  0.48990617    -0.23100
C1909       C  0.46339282  0.24553808  0.47848394     0.19900
C1910       C  0.44273082  0.26085258  0.47642501     0.24900
C1911       C  0.38596328  0.26467393  0.48577100    -0.23100
C1912       C  0.35036437  0.25261365  0.49697779     0.19800
F1913       F  0.29565718  0.25567001  0.50651806    -0.13000
F1914       F  0.33501623  0.22606953  0.51011808    -0.15400
F1915       F  0.47875797  0.27191162  0.46488873    -0.15400
F1916       F  0.51796906  0.24254235  0.46866953    -0.13000
C1917       C  0.48408174  0.18496700  0.60452728     0.25000
C1918       C  0.52621830  0.18773571  0.58193566    -0.23100
C1919       C  0.58415919  0.19011263  0.59133341     0.19900
C1920       C  0.59908443  0.18997822  0.62244900     0.24900
C1921       C  0.55666024  0.18748475  0.64491701    -0.23100
C1922       C  0.49906942  0.18487011  0.63555810     0.19800
F1923       F  0.45690849  0.18198664  0.65646927    -0.13000
F1924       F  0.42800392  0.18242486  0.59677755    -0.15400
F1925       F  0.65484369  0.19272907  0.63056761    -0.15400
F1926       F  0.62684213  0.19255855  0.57050747    -0.13000
C1927       C  0.50553777  0.11446173  0.47562020     0.25000
C1928       C  0.55677334  0.10903409  0.48933682    -0.23100
C1929       C  0.59719983  0.12007528  0.50041747     0.19900
C1930       C  0.58563537  0.13608667  0.49865297     0.24900
C1931       C  0.53342349  0.14139342  0.48603295    -0.23100
C1932       C  0.49395419  0.13045143  0.47408150     0.19800
F1933       F  0.44408222  0.13525412  0.46061581    -0.13000
F1934       F  0.46663047  0.10433645  0.46340858    -0.15400
F1935       F  0.62431853  0.14634697  0.51063988    -0.15400
F1936       F  0.64736506  0.11544731  0.51382034    -0.13000
C1937       C  0.47188745  0.31427443  0.09939988     0.25000
C1938       C  0.52080258  0.31493416  0.07997740    -0.23100
C1939       C  0.57580531  0.31627614  0.09347706     0.19900
C1940       C  0.58191653  0.31643695  0.12539297     0.24900
C1941       C  0.53312777  0.31531130  0.14476773    -0.23100
C1942       C  0.47803923  0.31446481  0.13132298     0.19800
F1943       F  0.42993265  0.31337048  0.14901072    -0.13000
F1944       F  0.41762990  0.31336888  0.08765245    -0.15400
F1945       F  0.63603016  0.31772021  0.13722900    -0.15400
F1946       F  0.62412808  0.31715214  0.07590040    -0.13000
C1947       C  0.60939202  0.26200228  0.98115033     0.25000
C1948       C  0.55148228  0.26572077  0.98861822    -0.23100
C1949       C  0.51458612  0.25355370  0.99794306     0.19900
C1950       C  0.53477794  0.23814757  0.99957424     0.24900
C1951       C  0.59248202  0.23440903  0.99169290    -0.23100
C1952       C  0.62947623  0.24659812  0.98264714     0.19800
F1953       F  0.34485759  0.24132901  0.96844393    -0.13000
F1954       F  0.64707326  0.27323352  0.97196665    -0.15400
F1955       F  0.49734958  0.22691537  0.00903831    -0.15400
F1956       F  0.45882694  0.25649304  0.00576800    -0.13000
C1957       C  0.41726385  0.43226217  0.09849377     0.25000
C1958       C  0.37004340  0.43552497  0.07906855    -0.23100
C1959       C  0.31618893  0.43896689  0.09222204     0.19900
C1960       C  0.64220353  0.44053538  0.12329608     0.24900
C1961       C  0.35768648  0.43680221  0.14366130    -0.23100
C1962       C  0.41118675  0.43288615  0.13036873     0.19800
F1963       F  0.45801982  0.42972697  0.14808766    -0.13000
F1964       F  0.46958392  0.42834681  0.08665328    -0.15400
F1965       F  0.58902087  0.44401562  0.13456130    -0.15400
F1966       F  0.60315331  0.44366473  0.07333141    -0.13000
C1967       C  0.60772718  0.50472486  0.97628115     0.25000
C1968       C  0.64219538  0.51628797  0.99008345    -0.23100
C1969       C  0.69724907  0.51199036  0.00136832     0.19900
C1970       C  0.38899038  0.49701989  0.98590270     0.24900
C1971       C  0.34898914  0.48488482  0.99049927    -0.23100
C1972       C  0.62754618  0.48931307  0.97387534     0.19800
F1973       F  0.59287230  0.47866738  0.95990419    -0.13000
F1974       F  0.55514213  0.50834715  0.96443334    -0.15400
F1975       F  0.44503479  0.49379675  0.97920534    -0.15400
F1976       F  0.73222316  0.52265536  0.01507679    -0.13000
C1977       C  0.39112716  0.38029314  0.97543952     0.25000
C1978       C  0.43441130  0.39125964  0.98332337    -0.23100
C1979       C  0.48972117  0.38571529  0.99119634     0.19900
C1980       C  0.50112067  0.36970318  0.99179316     0.24900
C1981       C  0.45756434  0.35877190  0.98453630    -0.23100
C1982       C  0.40258313  0.36424980  0.97617638     0.19800
F1983       F  0.36018872  0.35411185  0.96790568    -0.13000
F1984       F  0.33757390  0.38500835  0.96666131    -0.15400
F1985       F  0.55487611  0.36492854  0.00013251    -0.15400
F1986       F  0.53301341  0.39572825  0.99871308    -0.13000
C1987       C  0.42175218  0.31488055  0.62341462     0.25000
C1988       C  0.37354741  0.31349393  0.64306377    -0.23100
C1989       C  0.31818337  0.31228526  0.63005887     0.19900
C1990       C  0.31120158  0.31210120  0.59823437     0.24900
C1991       C  0.35954392  0.31314761  0.57850857    -0.23100
C1992       C  0.41481185  0.31475302  0.59157255     0.19800
F1993       F  0.46252903  0.31599726  0.57362969    -0.13000
F1994       F  0.47597849  0.31646585  0.63492943    -0.15400
F1995       F  0.58680910  0.31192710  0.58808343    -0.15400
F1996       F  0.60092130  0.31196465  0.64924117    -0.13000
C1997       C  0.36114186  0.23818585  0.74401448     0.25000
C1998       C  0.64187779  0.23398531  0.73572673    -0.23100
C1999       C  0.60882864  0.24564180  0.75009710     0.19900
C2000       C  0.62843050  0.26109259  0.75099643     0.24900
C2001       C  0.34454935  0.26600825  0.73683943    -0.23100
C2002       C  0.38199197  0.25352736  0.74327690     0.19800
F2003       F  0.43863157  0.25615840  0.74964095    -0.13000
F2004       F  0.39874274  0.22655855  0.75115233    -0.15400
F2005       F  0.59546623  0.27184912  0.76574407    -0.15400
F2006       F  0.55810828  0.24206224  0.76409307    -0.13000
C2007       C  0.39183733  0.31163679  0.85186571     0.25000
C2008       C  0.43558179  0.31120625  0.82952459    -0.23100
C2009       C  0.49383113  0.31066653  0.83935220     0.19900
C2010       C  0.50773662  0.31041596  0.87060064     0.24900
C2011       C  0.46395176  0.31065472  0.89291816    -0.23100
C2012       C  0.40574190  0.31129338  0.88309379     0.19800
F2013       F  0.36176585  0.31184962  0.90368079    -0.13000
F2014       F  0.33528809  0.31227258  0.84361508    -0.15400
F2015       F  0.56424103  0.30975520  0.87891744    -0.15400
F2016       F  0.53787249  0.31058789  0.81877417    -0.13000
C2017       C  0.47434875  0.43409902  0.62355606     0.25000
C2018       C  0.52221719  0.43564253  0.64342528    -0.23100
C2019       C  0.57770321  0.43700732  0.63067171     0.19900
C2020       C  0.58508441  0.43735887  0.59889358     0.24900
C2021       C  0.53704924  0.43628707  0.57893680    -0.23100
C2022       C  0.48168205  0.43442077  0.59173979     0.19800
F2023       F  0.43423804  0.43312246  0.57357863    -0.13000
F2024       F  0.42009264  0.43220593  0.63482807    -0.15400
F2025       F  0.63966524  0.43883829  0.58784083    -0.15400
F2026       F  0.62500054  0.43846498  0.64890066    -0.13000
C2027       C  0.60403364  0.48833807  0.73299406     0.25000
C2028       C  0.54440906  0.48476289  0.73420552    -0.23100
C2029       C  0.50460861  0.49717243  0.73482913     0.19900
C2030       C  0.52391955  0.51270017  0.73541251     0.24900
C2031       C  0.58369405  0.51622599  0.73529614    -0.23100
C2032       C  0.62327976  0.50380656  0.73364121     0.19800
F2033       F  0.68102558  0.50655126  0.73244776    -0.13000
F2034       F  0.64438737  0.47686495  0.73093419    -0.15400
F2035       F  0.48370796  0.52423602  0.73665747    -0.15400
F2036       F  0.44687268  0.49434552  0.73543983    -0.13000
C2037       C  0.40167026  0.44072650  0.83947398     0.25000
C2038       C  0.45984545  0.44000331  0.82962614    -0.23100
C2039       C  0.50365186  0.43929567  0.85196668     0.19900
C2040       C  0.48982712  0.43936412  0.88319393     0.24900
C2041       C  0.43169434  0.44015659  0.89300584    -0.23100
C2042       C  0.38788758  0.44078283  0.87070865     0.19800
F2043       F  0.33142834  0.44156859  0.87903666    -0.13000
F2044       F  0.35753790  0.44117200  0.81894921    -0.15400
F2045       F  0.53374498  0.43831920  0.90376931    -0.15400
F2046       F  0.56018495  0.43854750  0.84373988    -0.13000
C2047       C  0.41189207  0.38503667  0.72135808     0.25000
C2048       C  0.46014915  0.39109295  0.73693531    -0.23100
C2049       C  0.49937487  0.38060417  0.75088129     0.19900
C2050       C  0.49039634  0.36447120  0.74924963     0.24900
C2051       C  0.44160973  0.35852029  0.73419629    -0.23100
C2052       C  0.40259498  0.36892124  0.72015335     0.19800
F2053       F  0.35570474  0.36343584  0.70478861    -0.13000
F2054       F  0.37429031  0.39465017  0.70667729    -0.15400
F2055       F  0.52803164  0.35471521  0.76354969    -0.15400
F2056       F  0.54582308  0.38593121  0.76682261    -0.13000
C2057       C  0.65657674  0.81700140  0.11322172     0.25000
C2058       C  0.36883867  0.81469728  0.09468732    -0.23100
C2059       C  0.42286483  0.81176204  0.10811098     0.19900
C2060       C  0.42884532  0.81150316  0.13997791     0.24900
C2061       C  0.38074201  0.81421115  0.15932106    -0.23100
C2062       C  0.32692321  0.81751191  0.14576964     0.19800
F2063       F  0.61462725  0.81957372  0.16248405    -0.13000
F2064       F  0.60382254  0.82015882  0.10101326    -0.15400
F2065       F  0.48208590  0.80847438  0.15169610    -0.15400
F2066       F  0.46977665  0.80862546  0.09044323    -0.13000
C2067       C  0.37699757  0.75513323  0.23774200     0.25000
C2068       C  0.34665876  0.76680421  0.25363706    -0.23100
C2069       C  0.62553245  0.76245019  0.24603637     0.19900
C2070       C  0.60511840  0.74706860  0.24624173     0.24900
C2071       C  0.64283778  0.73461599  0.25249773    -0.23100
C2072       C  0.70151074  0.73794685  0.25875142     0.19800
F2073       F  0.73932920  0.72632680  0.26561307    -0.13000
F2074       F  0.42681283  0.75854730  0.22271331    -0.15400
F2075       F  0.54870611  0.74437476  0.23943174    -0.15400
F2076       F  0.58781257  0.77405825  0.23893712    -0.13000
C2077       C  0.49479650  0.93770001  0.13982744     0.25000
C2078       C  0.54321650  0.93630899  0.15950894    -0.23100
C2079       C  0.59822655  0.93453958  0.14625403     0.19900
C2080       C  0.60485897  0.93470239  0.11431440     0.24900
C2081       C  0.55659154  0.93657665  0.09476968    -0.23100
C2082       C  0.50147009  0.93782133  0.10797745     0.19800
F2083       F  0.45378540  0.93957633  0.09014064    -0.13000
F2084       F  0.44039263  0.93900972  0.15122992    -0.15400
F2085       F  0.65877003  0.93285070  0.10257409    -0.15400
F2086       F  0.64590325  0.93282348  0.16410032    -0.13000
C2087       C  0.62457204  0.98861632  0.26207086     0.25000
C2088       C  0.56890024  0.98448981  0.25136110    -0.23100
C2089       C  0.53478692  0.99604496  0.23736934     0.19900
C2090       C  0.55555161  0.01128279  0.23415619     0.24900
C2091       C  0.61101652  0.01545799  0.24503059    -0.23100
C2092       C  0.64536964  0.00389377  0.25886040     0.19800
F2093       F  0.69861717  0.00739678  0.27004242    -0.13000
F2094       F  0.65898240  0.97793681  0.27611595    -0.15400
F2095       F  0.52109402  0.02191449  0.22000467    -0.15400
F2096       F  0.48154053  0.99259769  0.22611630    -0.13000
C2097       C  0.41725225  0.88647716  0.25519770     0.25000
C2098       C  0.47444794  0.89164321  0.25184012    -0.23100
C2099       C  0.51878849  0.88044054  0.24833107     0.19900
C2100       C  0.50610143  0.86446014  0.24828088     0.24900
C2101       C  0.44877886  0.85927120  0.25175172    -0.23100
C2102       C  0.40452178  0.87054601  0.25520595     0.19800
F2103       F  0.34840256  0.86627526  0.25883269    -0.13000
F2104       F  0.37338299  0.89681749  0.25918976    -0.15400
F2105       F  0.55017711  0.85412993  0.24490749    -0.15400
F2106       F  0.57467135  0.88489995  0.24454239    -0.13000
C2107       C  0.59175157  0.81355959  0.60750739     0.25000
C2108       C  0.53617624  0.81263042  0.59456684    -0.23100
C2109       C  0.48796270  0.81183194  0.61442715     0.19900
C2110       C  0.49525247  0.81176096  0.64623777     0.24900
C2111       C  0.55082695  0.81244797  0.65914279    -0.23100
C2112       C  0.59901674  0.81343575  0.63935005     0.19800
F2113       F  0.65355637  0.81441186  0.65070256    -0.13000
F2114       F  0.63940551  0.81438715  0.58942721    -0.15400
F2115       F  0.44768586  0.81066653  0.66433882    -0.15400
F2116       F  0.43323817  0.81114036  0.60323417    -0.13000
C2117       C  0.54772522  0.73883056  0.51407987     0.25000
C2118       C  0.60181396  0.73479209  0.50128724    -0.23100
C2119       C  0.63423339  0.74645028  0.48648202     0.19900
C2120       C  0.61339873  0.76177258  0.48477106     0.24900
C2121       C  0.55976181  0.76583678  0.49803491    -0.23100
C2122       C  0.52689928  0.75412005  0.51232153     0.19800
F2123       F  0.47508828  0.75747679  0.52537855    -0.13000
F2124       F  0.51496310  0.72803954  0.52888183    -0.15400
F2125       F  0.64557509  0.77257177  0.46962754    -0.15400
F2126       F  0.68553325  0.74300175  0.47296472    -0.13000
C2127       C  0.51393960  0.81329684  0.38595370     0.25000
C2128       C  0.47079422  0.81248702  0.40855919    -0.23100
C2129       C  0.41225564  0.81209634  0.39923279     0.19900
C2130       C  0.39752238  0.81220446  0.36814761     0.24900
C2131       C  0.44069156  0.81262847  0.34558641    -0.23100
C2132       C  0.49914717  0.81337113  0.35488100     0.19800
F2133       F  0.54241079  0.81436904  0.33392934    -0.13000
F2134       F  0.57070074  0.81381305  0.39379213    -0.15400
F2135       F  0.34087554  0.81161142  0.36017125    -0.15400
F2136       F  0.36877824  0.81169688  0.42013044    -0.13000
C2137       C  0.41797708  0.93540973  0.64438453     0.25000
C2138       C  0.36318163  0.93453459  0.65799349    -0.23100
C2139       C  0.64605590  0.93169475  0.63816115     0.19900
C2140       C  0.65014323  0.93183887  0.60608648     0.24900
C2141       C  0.37422487  0.93473441  0.59335618    -0.23100
C2142       C  0.42350667  0.93551090  0.61253593     0.19800
F2143       F  0.47760675  0.93647612  0.60062896    -0.13000
F2144       F  0.46641158  0.93667146  0.66181274    -0.15400
F2145       F  0.60166920  0.92933744  0.58922029    -0.15400
F2146       F  0.59369620  0.92887098  0.65110059    -0.13000
C2147       C  0.61648389  0.98770869  0.49071512     0.25000
C2148       C  0.34551678  0.98390045  0.49785605    -0.23100
C2149       C  0.38522822  0.99632264  0.49762329     0.19900
C2150       C  0.36612527  0.01181579  0.49633951     0.31300
C2151       C  0.63723351  0.01528763  0.49920844    -0.23100
C2152       C  0.59863426  0.00332627  0.49089059     0.19800
F2153       F  0.54371028  0.00671343  0.48226364    -0.13000
F2154       F  0.57736708  0.97663569  0.48250108    -0.15400
F2155       F  0.40655320  0.02331518  0.49565410    -0.15400
F2156       F  0.44290615  0.99352499  0.49828897    -0.13000
C2157       C  0.41590490  0.93642777  0.35369469     0.25000
C2158       C  0.47370941  0.93943899  0.34511757    -0.23100
C2159       C  0.51446173  0.94253443  0.36809916     0.19900
C2160       C  0.49825253  0.94245959  0.39898786     0.24900
C2161       C  0.44040320  0.93933751  0.40772095    -0.23100
C2162       C  0.39951250  0.93634375  0.38458389     0.19800
F2163       F  0.34354742  0.93324644  0.39170946    -0.13000
F2164       F  0.37508129  0.93324883  0.33219166    -0.15400
F2165       F  0.53973193  0.94545532  0.42024311    -0.15400
F2166       F  0.56982958  0.94611046  0.36062365    -0.13000
C2167       C  0.39795660  0.87991229  0.50206902     0.25000
C2168       C  0.44266935  0.89116572  0.50174067    -0.23100
C2169       C  0.50032726  0.88602345  0.50206168     0.19900
C2170       C  0.51300592  0.87007350  0.50264460     0.24900
C2171       C  0.46826957  0.85882326  0.50296825    -0.23100
C2172       C  0.41061400  0.86397480  0.50262652     0.19800
F2173       F  0.36609978  0.85362734  0.50230232    -0.13000
F2174       F  0.34150177  0.88424163  0.50195928    -0.15400
F2175       F  0.56944741  0.86572988  0.50283705    -0.15400
F2176       F  0.54476978  0.89638441  0.50133022    -0.13000
O2177       O  0.65607704  0.95633801  0.49321741    -0.71500
O2178       O  0.70168770  0.91171816  0.49356363    -0.72500
O2179       O  0.66634652  0.93293044  0.53965722    -0.61100
O2180       O  0.69714137  0.93503480  0.44740727    -0.69600
O2181       O  0.78714089  0.94187939  0.45799599    -0.69100
O2182       O  0.75748725  0.93981479  0.54673733    -0.60400
O2183       O  0.79287466  0.91806733  0.50246883    -0.72900
O2184       O  0.74637683  0.96351211  0.50219000    -0.71700
Cu2185     Cu  0.67695319  0.93381304  0.49307181     1.04600
Cu2186     Cu  0.77390265  0.94108856  0.50260037     1.04300
C2187       C  0.69317946  0.96707413  0.49789881     0.94600
C2188       C  0.75385570  0.90766024  0.49830872     0.93800
C2189       C  0.70880919  0.93583242  0.55776190     0.85900
C2190       C  0.74843196  0.93850335  0.43838610     0.92200
O2191       O  0.86226845  0.83809337  0.49753134    -0.71500
O2192       O  0.91138560  0.79392072  0.49476764    -0.72500
O2193       O  0.86857511  0.81545659  0.45059533    -0.61100
O2194       O  0.90003009  0.81645663  0.54208788    -0.69600
O2195       O  0.80941159  0.80914191  0.54986597    -0.69100
O2196       O  0.77873781  0.80801060  0.46050290    -0.60400
O2197       O  0.82207993  0.78592461  0.50380260    -0.72900
O2198       O  0.77128535  0.83125043  0.50610264    -0.71700
Cu2199     Cu  0.88870570  0.81620642  0.49590985     1.04600
Cu2200     Cu  0.79226251  0.80827945  0.50537327     1.04300
C2201       C  0.80975242  0.84183334  0.50211623     0.94600
C2202       C  0.87561430  0.78283733  0.49904231     0.93800
C2203       C  0.81770757  0.81182031  0.44130662     0.85900
C2204       C  0.85858836  0.81310215  0.56045675     0.92200
O2205       O  0.86489457  0.91226744  0.25483335    -0.71500
O2206       O  0.90897058  0.95678602  0.25620969    -0.72500
O2207       O  0.86640650  0.93541206  0.30113467    -0.61100
O2208       O  0.90140839  0.93368639  0.20962537    -0.69600
O2209       O  0.81036182  0.94025036  0.20113594    -0.69100
O2210       O  0.77645549  0.94211511  0.28984284    -0.60400
O2211       O  0.81920751  0.96401966  0.24589905    -0.72900
O2212       O  0.77359059  0.91825320  0.24503160    -0.71700
Cu2213     Cu  0.88860008  0.93434971  0.25588996     1.04600
Cu2214     Cu  0.79179505  0.94142932  0.24519811     1.04300
C2215       C  0.81319272  0.90802271  0.24947629     0.94600
C2216       C  0.87236737  0.96752370  0.25075927     0.93800
C2217       C  0.81477220  0.93875048  0.30971221     0.85900
C2218       C  0.85999403  0.93657745  0.19087782     0.92200
O2219       O  0.71309089  0.83738364  0.25585897    -0.71500
O2220       O  0.66802522  0.79299714  0.25700605    -0.72500
O2221       O  0.70726394  0.81453464  0.30240199    -0.61100
O2222       O  0.67975830  0.81587078  0.21047406    -0.69600
O2223       O  0.77103312  0.80900733  0.20367780    -0.69100
O2224       O  0.79781312  0.80782841  0.29292517    -0.60400
O2225       O  0.75848482  0.78557727  0.24907038    -0.72900
O2226       O  0.80472337  0.83138044  0.24753735    -0.71700
Cu2227     Cu  0.68885873  0.81538397  0.25677047     1.04600
Cu2228     Cu  0.78617544  0.80816869  0.24808906     1.04300
C2229       C  0.76498388  0.84165398  0.25122752     0.94600
C2230       C  0.70491783  0.78218593  0.25284700     0.93800
C2231       C  0.75823716  0.81123043  0.31202896     0.85900
C2232       C  0.72222807  0.81283233  0.19255446     0.92200
O2233       O  0.90618219  0.45685131  0.74346688    -0.71500
O2234       O  0.86085807  0.41217429  0.73948419    -0.72500
O2235       O  0.89469978  0.43453822  0.69548947    -0.61100
O2236       O  0.86726489  0.43453912  0.78740993    -0.69600
O2237       O  0.77676282  0.44157975  0.77829971    -0.69100
O2238       O  0.80320395  0.44136417  0.68891533    -0.60400
O2239       O  0.76913320  0.41857069  0.73199695    -0.72900
O2240       O  0.81593648  0.46431669  0.73545843    -0.71700
Cu2241     Cu  0.88547871  0.43432356  0.74177074     1.04600
Cu2242     Cu  0.78815990  0.44173582  0.73344446     1.04300
C2243       C  0.86929397  0.46774838  0.73989611     0.94600
C2244       C  0.80854393  0.40814879  0.73496252     0.93800
C2245       C  0.85211971  0.43770576  0.67770822     0.85900
C2246       C  0.81644576  0.43787558  0.79715693     0.92200
O2247       O  0.70639836  0.33737134  0.74107216    -0.71500
O2248       O  0.66356118  0.29254056  0.74239645    -0.72500
O2249       O  0.70361922  0.31413767  0.78709593    -0.61100
O2250       O  0.67081455  0.31578120  0.69617751    -0.69600
O2251       O  0.76221686  0.30942444  0.68766210    -0.69100
O2252       O  0.79405074  0.30763991  0.77665911    -0.60400
O2253       O  0.75384385  0.28558722  0.73258506    -0.72900
O2254       O  0.79779941  0.33152951  0.73162893    -0.71700
Cu2255     Cu  0.68294172  0.31513421  0.74206464     1.04600
Cu2256     Cu  0.78013891  0.30827961  0.73184963     1.04300
C2257       C  0.75809896  0.34174705  0.73590660     0.94600
C2258       C  0.70092029  0.28189805  0.73753921     0.93800
C2259       C  0.75488689  0.31084346  0.79616652     0.85900
C2260       C  0.71242495  0.31309597  0.67754546     0.92200
O2261       O  0.66430900  0.45778056  0.97928320    -0.71500
O2262       O  0.70643942  0.41288972  0.98203934    -0.72500
O2263       O  0.67066834  0.43499977  0.02635023    -0.61100
O2264       O  0.70479957  0.43567882  0.93528838    -0.69600
O2265       O  0.79509017  0.44230260  0.94583670    -0.69100
O2266       O  0.76248884  0.44097255  0.03493708    -0.60400
O2267       O  0.79813321  0.41863741  0.99113638    -0.72900
O2268       O  0.75449673  0.46461898  0.98961397    -0.71700
Cu2269     Cu  0.68340092  0.43515498  0.98035337     1.04600
Cu2270     Cu  0.78070335  0.44189976  0.99066893     1.04300
C2271       C  0.70166188  0.46838586  0.98452543     0.94600
C2272       C  0.75820808  0.40847269  0.98686322     0.93800
C2273       C  0.71229451  0.43769201  0.04502028     0.85900
C2274       C  0.75624679  0.43884044  0.92628851     0.92200
O2275       O  0.90599619  0.29368715  0.97896930    -0.71500
O2276       O  0.85962289  0.33818268  0.98242261    -0.72500
O2277       O  0.89473629  0.31605905  0.02661123    -0.61100
O2278       O  0.86507366  0.31557697  0.93479100    -0.69600
O2279       O  0.77488278  0.30837234  0.94434529    -0.69100
O2280       O  0.80346098  0.30915985  0.03327511    -0.60400
O2281       O  0.76792761  0.33169728  0.99003343    -0.72900
O2282       O  0.81605066  0.28609319  0.98751520    -0.71700
Cu2283     Cu  0.88456396  0.31610005  0.98031205     1.04600
Cu2284     Cu  0.78747924  0.30855868  0.98901143     1.04300
C2285       C  0.86954871  0.28276666  0.98329448     0.94600
C2286       C  0.80729535  0.34213253  0.98699446     0.93800
C2287       C  0.85238128  0.31280048  0.04447831     0.85900
C2288       C  0.81424795  0.31199539  0.92529764     0.92200
O2289       O  0.88106720  0.16803416  0.48516496    -0.71500
O2290       O  0.83295070  0.21383246  0.48571586    -0.72500
O2291       O  0.87615729  0.19193787  0.52998079    -0.61100
O2292       O  0.84299906  0.18998161  0.44088769    -0.69600
O2293       O  0.75177222  0.18345469  0.44935276    -0.69100
O2294       O  0.78678407  0.18453867  0.54058828    -0.60400
O2295       O  0.74366665  0.20635638  0.49624547    -0.72900
O2296       O  0.78963869  0.16161141  0.49369062    -0.71700
Cu2297     Cu  0.86140298  0.19122620  0.48514166     1.04600
Cu2298     Cu  0.76483837  0.18379156  0.49539891     1.04300
C2299       C  0.84192243  0.15760512  0.48906740     0.94600
C2300       C  0.77972087  0.21724857  0.49066037     0.93800
C2301       C  0.83787372  0.18816680  0.54960017     0.85900
C2302       C  0.79315836  0.18637953  0.43068315     0.92200
O2303       O  0.89947125  0.03499341  0.49199074    -0.71500
O2304       O  0.85357387  0.08088842  0.48838725    -0.72500
O2305       O  0.88897040  0.05808131  0.44514685    -0.61100
O2306       O  0.85899778  0.05754071  0.53460265    -0.69600
O2307       O  0.94938347  0.06435505  0.54449618    -0.69100
O2308       O  0.98019115  0.06487694  0.45292615    -0.60400
O2309       O  0.94493808  0.08705633  0.49726732    -0.72900
O2310       O  0.98943691  0.04250909  0.50072364    -0.71700
Cu2311     Cu  0.87207205  0.05761650  0.48972008     1.04600
Cu2312     Cu  0.96910299  0.06491421  0.49914440     1.04300
C2313       C  0.95264069  0.03160993  0.49716360     0.94600
C2314       C  0.89298176  0.09125194  0.49235154     0.93800
C2315       C  0.93851769  0.06167462  0.43456765     0.85900
C2316       C  0.89845838  0.06087488  0.55387889     0.92200
O2317       O  0.88412708  0.08133093  0.74739099    -0.71500
O2318       O  0.84206224  0.03519143  0.74717815    -0.72500
O2319       O  0.88062552  0.05730402  0.70278173    -0.61100
O2320       O  0.85076910  0.05908785  0.79194653    -0.69600
O2321       O  0.75889224  0.06509422  0.78421713    -0.69100
O2322       O  0.78984249  0.06368631  0.69278035    -0.60400
O2323       O  0.75149386  0.04196418  0.73780050    -0.72900
O2324       O  0.79196717  0.08695421  0.73903129    -0.71700
Cu2325     Cu  0.86757380  0.05799051  0.74760621     1.04600
Cu2326     Cu  0.76987428  0.06460098  0.73809280     1.04300
C2327       C  0.84379302  0.09141797  0.74345836     0.94600
C2328       C  0.78910021  0.03138274  0.74260110     0.93800
C2329       C  0.84101976  0.06042351  0.68346761     0.85900
C2330       C  0.80107234  0.06244287  0.80256559     0.92200
O2331       O  0.85084720  0.16830832  0.74389599    -0.71500
O2332       O  0.89693286  0.21428584  0.74162656    -0.72500
O2333       O  0.85800361  0.19164094  0.69789066    -0.61100
O2334       O  0.88464380  0.19099418  0.78782250    -0.69600
O2335       O  0.97640778  0.18451416  0.78065869    -0.69100
O2336       O  0.94899575  0.18503972  0.68877234    -0.60400
O2337       O  0.98742996  0.20697166  0.73354236    -0.72900
O2338       O  0.94265328  0.16237152  0.73591266    -0.71700
Cu2339     Cu  0.86938317  0.19158438  0.74303226     1.04600
Cu2340     Cu  0.96696295  0.18451367  0.73442158     1.04300
C2341       C  0.89064773  0.15804165  0.74026746     0.94600
C2342       C  0.95041174  0.21776783  0.73761921     0.93800
C2343       C  0.89802323  0.18818566  0.67901297     0.85900
C2344       C  0.93419969  0.18762701  0.79868979     0.92200
O2345       O  0.85617063  0.58028561  0.98947891    -0.71500
O2346       O  0.90176809  0.53437765  0.98770492    -0.72500
O2347       O  0.86379315  0.55594849  0.03337964    -0.61100
O2348       O  0.88884920  0.55854268  0.94379970    -0.69600
O2349       O  0.98052646  0.56501987  0.95092989    -0.69100
O2350       O  0.95446616  0.56258753  0.04278675    -0.60400
O2351       O  0.99232577  0.54152068  0.99613365    -0.72900
O2352       O  0.94806298  0.58620037  0.99749735    -0.71700
Cu2353     Cu  0.87446577  0.55702341  0.98837579     1.04600
Cu2354     Cu  0.97200487  0.56401814  0.99715890     1.04300
C2355       C  0.89596292  0.59052622  0.99354435     0.94600
C2356       C  0.95525749  0.53081511  0.99122263     0.93800
C2357       C  0.90372745  0.55912817  0.05249091     0.85900
C2358       C  0.93797331  0.56224364  0.93287965     0.92200
O2359       O  0.76066477  0.68319386  0.95964246    -0.71500
O2360       O  0.79029284  0.68431301  0.05146632    -0.72500
O2361       O  0.75074678  0.70614528  0.00666315    -0.61100
O2362       O  0.79490299  0.66135450  0.00449047    -0.69600
O2363       O  0.88628683  0.66739313  0.99550651    -0.69100
O2364       O  0.84117508  0.71331874  0.99826028    -0.60400
O2365       O  0.88092728  0.69082653  0.04155832    -0.72900
O2366       O  0.85184135  0.69000230  0.95224770    -0.71700
Cu2367     Cu  0.77096547  0.68356108  0.00592035     1.04600
Cu2368     Cu  0.86817027  0.69065315  0.99667062     1.04300
C2369       C  0.80274582  0.68618791  0.94142711     0.94600
C2370       C  0.84145733  0.68757916  0.06085807     0.93800
C2371       C  0.78796368  0.71692216  0.00264340     0.85900
C2372       C  0.84663189  0.65707932  0.99916497     0.92200
O2373       O  0.75468094  0.56582764  0.28094907    -0.71500
O2374       O  0.79132695  0.56556123  0.18997559    -0.72500
O2375       O  0.74871731  0.54355555  0.23268847    -0.61100
O2376       O  0.79248305  0.58817262  0.23794730    -0.69600
O2377       O  0.88330333  0.58188304  0.24833050    -0.69100
O2378       O  0.83843329  0.53615216  0.24259363    -0.60400
O2379       O  0.88161167  0.55900149  0.20118238    -0.72900
O2380       O  0.84539353  0.55895643  0.29005001    -0.71700
Cu2381     Cu  0.76869127  0.56600248  0.23498734     1.04600
Cu2382     Cu  0.86534747  0.55873972  0.24586458     1.04300
C2383       C  0.79540662  0.56264368  0.29989142     0.94600
C2384       C  0.84284480  0.56216897  0.18140518     0.93800
C2385       C  0.78560540  0.53271390  0.23664886     0.85900
C2386       C  0.84398619  0.59224804  0.24442189     0.92200
O2387       O  0.95269351  0.68519721  0.19950047    -0.71500
O2388       O  0.98505303  0.68424550  0.29093182    -0.72500
O2389       O  0.94742833  0.66260182  0.24627293    -0.61100
O2390       O  0.99583002  0.70673511  0.24380637    -0.69600
O2391       O  0.90654660  0.71452594  0.25345577    -0.69100
O2392       O  0.85623408  0.66890886  0.25497811    -0.60400
O2393       O  0.89413985  0.69113022  0.29905399    -0.72900
O2394       O  0.86296550  0.69251286  0.20965324    -0.71700
Cu2395     Cu  0.97329929  0.68447666  0.24478660     1.04600
Cu2396     Cu  0.87678803  0.69207077  0.25458541     1.04300
C2397       C  0.90167436  0.68872605  0.19028470     0.94600
C2398       C  0.94375677  0.68748490  0.30947140     0.93800
C2399       C  0.89525859  0.65849397  0.25065291     0.85900
C2400       C  0.96007142  0.71772586  0.24873082     0.92200
O2401       O  0.74671277  0.95630121  0.75400320    -0.71500
O2402       O  0.04002946  0.91185180  0.75481042    -0.72500
O2403       O  0.73378529  0.93298812  0.70805791    -0.61100
O2404       O  0.04327183  0.93514145  0.80106749    -0.69600
O2405       O  0.95216165  0.94133041  0.79132526    -0.69100
O2406       O  0.98004228  0.93974376  0.70185692    -0.60400
O2407       O  0.94805974  0.91749486  0.74646036    -0.72900
O2408       O  0.98923074  0.96359011  0.74677993    -0.71700
Cu2409     Cu  0.72697355  0.93378695  0.75460753     1.04600
Cu2410     Cu  0.96424242  0.94078137  0.74637210     1.04300
C2411       C  0.70937522  0.96697025  0.74948069     0.94600
C2412       C  0.98818770  0.90736009  0.75038538     0.93800
C2413       C  0.02967596  0.93639379  0.69114476     0.85900
C2414       C  0.99204622  0.93823462  0.81050934     0.92200
O2415       O  0.93757749  0.80828174  0.70299284    -0.71500
O2416       O  0.96850277  0.80677867  0.79221059    -0.72500
O2417       O  0.92601087  0.78479386  0.74850923    -0.61100
O2418       O  0.97520777  0.83041306  0.74679679    -0.69600
O2419       O  0.88420873  0.83688577  0.75586948    -0.69100
O2420       O  0.83639577  0.79240814  0.75785209    -0.60400
O2421       O  0.87872953  0.81394287  0.80248500    -0.72900
O2422       O  0.84681041  0.81532842  0.71103656    -0.71700
Cu2423     Cu  0.95492180  0.80727721  0.74736411     1.04600
Cu2424     Cu  0.85839083  0.81485078  0.75718777     1.04300
C2425       C  0.88829589  0.81221127  0.69253958     0.94600
C2426       C  0.92969260  0.81034380  0.81166928     0.93800
C2427       C  0.87262269  0.78147025  0.75312438     0.85900
C2428       C  0.93635502  0.84089529  0.75082779     0.92200
O2429       O  0.97153135  0.94294680  0.95931183    -0.71500
O2430       O  0.94070668  0.94114974  0.04877673    -0.72500
O2431       O  0.97854962  0.91929598  0.00451847    -0.61100
O2432       O  0.92856105  0.96487628  0.00309068    -0.69600
O2433       O  0.83938423  0.95708963  0.99305319    -0.69100
O2434       O  0.88712672  0.91273235  0.99619827    -0.60400
O2435       O  0.84957874  0.93439174  0.04034440    -0.72900
O2436       O  0.88212485  0.93535599  0.94914577    -0.71700
Cu2437     Cu  0.95797978  0.94238061  0.00423576     1.04600
Cu2438     Cu  0.86144001  0.93469357  0.99433063     1.04300
C2439       C  0.93292509  0.93907319  0.93992022     0.94600
C2440       C  0.89113693  0.93726618  0.05895516     0.93800
C2441       C  0.93946470  0.90883468  0.00089481     0.85900
C2442       C  0.87531399  0.96810955  0.99770654     0.92200
O2443       O  0.74789018  0.79241573  0.99632280    -0.71500
O2444       O  0.03911833  0.83805094  0.99522910    -0.72500
O2445       O  0.73948366  0.81565658  0.04234867    -0.61100
O2446       O  0.04159260  0.81446439  0.94984003    -0.69600
O2447       O  0.95096266  0.80810105  0.96044754    -0.69100
O2448       O  0.98174296  0.81061067  0.04960212    -0.60400
O2449       O  0.94740216  0.83240889  0.00449482    -0.72900
O2450       O  0.99050821  0.78642082  0.00538111    -0.71700
Cu2451     Cu  0.72880147  0.81499391  0.99629738     1.04600
Cu2452     Cu  0.96444292  0.80914135  0.00528073     1.04300
C2453       C  0.71045346  0.78178804  0.00109407     0.94600
C2454       C  0.98740746  0.84251392  0.99986155     0.93800
C2455       C  0.03170184  0.81406710  0.05980005     0.85900
C2456       C  0.99028790  0.81108357  0.94088574     0.92200
O2457       O  0.00441699  0.53561094  0.74399707    -0.71500
O2458       O  0.70826737  0.58110448  0.74740293    -0.72500
O2459       O  0.01443079  0.55856913  0.79035000    -0.61100
O2460       O  0.70035555  0.55862041  0.69989048    -0.69600
O2461       O  0.95746684  0.56518931  0.69075910    -0.69100
O2462       O  0.92368913  0.56565919  0.78233364    -0.60400
O2463       O  0.96097133  0.58779540  0.73869580    -0.72900
O2464       O  0.91476343  0.54315867  0.73459216    -0.71700
Cu2465     Cu  0.68753701  0.55813390  0.74469293     1.04600
Cu2466     Cu  0.93606551  0.56566140  0.73615571     1.04300
C2467       C  0.95113277  0.53223194  0.73917289     0.94600
C2468       C  0.66981741  0.59178526  0.74454148     0.93800
C2469       C  0.96511099  0.56238853  0.80080544     0.85900
C2470       C  0.00872164  0.56172199  0.68177777     0.92200
O2471       O  0.73665083  0.71377549  0.75483755    -0.71500
O2472       O  0.68790402  0.66820013  0.75454418    -0.72500
O2473       O  0.72557096  0.68969837  0.79926980    -0.61100
O2474       O  0.69437379  0.69235424  0.71004274    -0.69600
O2475       O  0.78422737  0.68531182  0.69963371    -0.69100
O2476       O  0.81647802  0.68280023  0.79083942    -0.60400
O2477       O  0.77879107  0.66176780  0.74518947    -0.72900
O2478       O  0.82628647  0.70627653  0.74517058    -0.71700
Cu2479     Cu  0.70800282  0.69128372  0.75496676     1.04600
Cu2480     Cu  0.80456851  0.68382573  0.74482427     1.04300
C2481       C  0.78998859  0.71715623  0.75027459     0.94600
C2482       C  0.72662236  0.65773438  0.75008208     0.93800
C2483       C  0.77498458  0.68568885  0.80944792     0.85900
C2484       C  0.73342946  0.68909171  0.69049255     0.92200
O2485       O  0.77242769  0.56391232  0.54182273    -0.71500
O2486       O  0.80304757  0.56530375  0.45026177    -0.72500
O2487       O  0.77120715  0.58706150  0.49585203    -0.61100
O2488       O  0.80958250  0.54216861  0.49631317    -0.69600
O2489       O  0.71902083  0.53545894  0.48674792    -0.69100
O2490       O  0.67889552  0.58184517  0.48723513    -0.60400
O2491       O  0.71107847  0.55954830  0.44219524    -0.72900
O2492       O  0.68135138  0.55779632  0.53185636    -0.71700
Cu2493     Cu  0.79216445  0.56475409  0.49641356     1.04600
Cu2494     Cu  0.69432150  0.55841450  0.48674571     1.04300
C2495       C  0.72095911  0.56102359  0.55116514     0.94600
C2496       C  0.76107338  0.56274380  0.43171780     0.93800
C2497       C  0.71971637  0.59176652  0.49153823     0.85900
C2498       C  0.77205034  0.53162852  0.49108541     0.92200
O2499       O  0.93617008  0.68552780  0.46008258    -0.71500
O2500       O  0.96919914  0.68656701  0.55133874    -0.72500
O2501       O  0.92726470  0.70817481  0.50705398    -0.61100
O2502       O  0.97300804  0.66385866  0.50446364    -0.69600
O2503       O  0.71817992  0.66861543  0.49563046    -0.69100
O2504       O  0.01673382  0.71584681  0.49751359    -0.60400
O2505       O  0.71483615  0.69240892  0.54137179    -0.72900
O2506       O  0.02697055  0.69243693  0.45161742    -0.71700
Cu2507     Cu  0.94840478  0.68584210  0.50613772     1.04600
Cu2508     Cu  0.70113333  0.69194178  0.49637151     1.04300
C2509       C  0.97733240  0.68864036  0.44138836     0.94600
C2510       C  0.67529798  0.68939804  0.56082300     0.93800
C2511       C  0.96330231  0.71912201  0.50222638     0.85900
C2512       C  0.67786522  0.65850754  0.49947266     0.92200
O2513       O  0.95004842  0.44222018  0.44486950    -0.71500
O2514       O  0.92342065  0.44143450  0.53414484    -0.72500
O2515       O  0.95936412  0.41895721  0.49089759    -0.61100
O2516       O  0.90901451  0.46437222  0.48814741    -0.69600
O2517       O  0.81905944  0.45663522  0.47987466    -0.69100
O2518       O  0.86816021  0.41223685  0.48302578    -0.60400
O2519       O  0.83241185  0.43421437  0.52752372    -0.72900
O2520       O  0.86010181  0.43486533  0.43543149    -0.71700
Cu2521     Cu  0.93853442  0.44202488  0.48970999     1.04600
Cu2522     Cu  0.84173557  0.43424303  0.48112856     1.04300
C2523       C  0.91062932  0.43862036  0.42578485     0.94600
C2524       C  0.87471628  0.43759965  0.54536441     0.93800
C2525       C  0.92057402  0.40837257  0.48774721     0.85900
C2526       C  0.85544461  0.46760998  0.48392309     0.92200
O2527       O  0.68816332  0.33716608  0.48266881    -0.71500
O2528       O  0.73264273  0.29244303  0.48080074    -0.72500
O2529       O  0.69160840  0.31416406  0.43623249    -0.61100
O2530       O  0.72370499  0.31553175  0.52745812    -0.69600
O2531       O  0.97047312  0.30903549  0.53355422    -0.69100
O2532       O  0.93856165  0.30829288  0.44448575    -0.60400
O2533       O  0.64257565  0.28514035  0.48984584    -0.72900
O2534       O  0.93465081  0.33167569  0.49046310    -0.71700
Cu2535     Cu  0.71216642  0.31500073  0.48141813     1.04600
Cu2536     Cu  0.95286026  0.30843869  0.48928669     1.04300
C2537       C  0.97404009  0.34203931  0.48656045     0.94600
C2538       C  0.69584894  0.28160759  0.48524819     0.93800
C2539       C  0.97729696  0.31178136  0.42493972     0.85900
C2540       C  0.68205208  0.31259847  0.54594905     0.92200
O2541       O  0.68768932  0.41350050  0.24055918    -0.71500
O2542       O  0.73660989  0.45774816  0.24140280    -0.72500
O2543       O  0.69500459  0.43656065  0.28684142    -0.61100
O2544       O  0.72382662  0.43487017  0.19512329    -0.69600
O2545       O  0.96646592  0.44208301  0.18768333    -0.69100
O2546       O  0.93132305  0.44400549  0.27669343    -0.60400
O2547       O  0.97696458  0.46588007  0.23308257    -0.72900
O2548       O  0.92619526  0.42020122  0.23128795    -0.71700
Cu2549     Cu  0.71390249  0.43545099  0.24133110     1.04600
Cu2550     Cu  0.94707933  0.44336697  0.23186186     1.04300
C2551       C  0.96486765  0.40970283  0.23578816     0.94600
C2552       C  0.70094827  0.46877670  0.23643164     0.93800
C2553       C  0.96973772  0.44039304  0.29638638     0.85900
C2554       C  0.68194002  0.43805545  0.17690527     0.92200
O2555       O  0.86427374  0.33864119  0.24025591    -0.71500
O2556       O  0.82152935  0.29391646  0.24138954    -0.72500
O2557       O  0.86120938  0.31550296  0.28686879    -0.61100
O2558       O  0.83166685  0.31680171  0.19470201    -0.69600
O2559       O  0.92350556  0.31039499  0.18760138    -0.69100
O2560       O  0.95166055  0.30904933  0.27655091    -0.60400
O2561       O  0.91208674  0.28672813  0.23289471    -0.72900
O2562       O  0.95601876  0.33291971  0.23158007    -0.71700
Cu2563     Cu  0.84145196  0.31640679  0.24114686     1.04600
Cu2564     Cu  0.93895445  0.30952079  0.23190823     1.04300
C2565       C  0.91594358  0.34310152  0.23555219     0.94600
C2566       C  0.85867967  0.28319052  0.23705612     0.93800
C2567       C  0.91258766  0.31223499  0.29604471     0.85900
C2568       C  0.87425759  0.31391888  0.17671265     0.92200
O2569       O  0.81380926  0.06563217  0.95276533    -0.71500
O2570       O  0.78365204  0.06531482  0.04426755    -0.72500
O2571       O  0.82567803  0.04332137  0.00052908    -0.61100
O2572       O  0.77652073  0.08769461  0.99632480    -0.69600
O2573       O  0.68564634  0.08092814  0.98778138    -0.69100
O2574       O  0.73620219  0.03536025  0.99185369    -0.60400
O2575       O  0.69386840  0.05785990  0.03483410    -0.72900
O2576       O  0.72311500  0.05828652  0.94518182    -0.71700
Cu2577     Cu  0.80299068  0.06571293  0.99883664     1.04600
Cu2578     Cu  0.70655289  0.05780726  0.98970791     1.04300
C2579       C  0.77220107  0.06225379  0.93452331     0.94600
C2580       C  0.73312126  0.06163822  0.05395620     0.93800
C2581       C  0.78976471  0.03222563  0.99650191     0.85900
C2582       C  0.72436758  0.09155091  0.99083784     0.92200
O2583       O  0.66603487  0.21432351  0.98764516    -0.71500
O2584       O  0.71115870  0.16835411  0.98460517    -0.72500
O2585       O  0.67817477  0.19128153  0.94139794    -0.61100
O2586       O  0.70492804  0.19164297  0.03076307    -0.69600
O2587       O  0.61404609  0.18503227  0.04003565    -0.69100
O2588       O  0.58671461  0.18450568  0.94771863    -0.60400
O2589       O  0.61950114  0.16222780  0.99254683    -0.72900
O2590       O  0.57550524  0.20702509  0.99537900    -0.71700
Cu2591     Cu  0.69318056  0.19165171  0.98589464     1.04600
Cu2592     Cu  0.59572670  0.18448675  0.99423762     1.04300
C2593       C  0.61265214  0.21784606  0.99174030     0.94600
C2594       C  0.67151279  0.15799433  0.98789034     0.93800
C2595       C  0.62931813  0.18774650  0.92997204     0.85900
C2596       C  0.66501594  0.18832642  0.04973281     0.92200
O2597       O  0.72361713  0.08220051  0.24805722    -0.71500
O2598       O  0.68343798  0.03588649  0.24755665    -0.72500
O2599       O  0.71917147  0.05846056  0.20288011    -0.61100
O2600       O  0.69328295  0.05952483  0.29279713    -0.69600
O2601       O  0.92749619  0.06497148  0.28394542    -0.69100
O2602       O  0.62744360  0.06438147  0.19401399    -0.60400
O2603       O  0.91899813  0.04199958  0.23755477    -0.72900
O2604       O  0.63088445  0.08737937  0.24052768    -0.71700
Cu2605     Cu  0.70814792  0.05878230  0.24805137     1.04600
Cu2606     Cu  0.93840678  0.06449367  0.23766732     1.04300
C2607       C  0.68250953  0.09209264  0.24441855     0.94600
C2608       C  0.95623759  0.03133833  0.24235898     0.93800
C2609       C  0.67852521  0.06150470  0.18409228     0.85900
C2610       C  0.64369481  0.06257000  0.30394269     0.92200
O2611       O  0.80553944  0.18503582  0.28027384    -0.71500
O2612       O  0.77585400  0.18707906  0.18854869    -0.72500
O2613       O  0.81440270  0.20843161  0.23447995    -0.61100
O2614       O  0.77346008  0.16368367  0.23417934    -0.69600
O2615       O  0.68153451  0.16897212  0.24335049    -0.69100
O2616       O  0.72352688  0.21533390  0.24288579    -0.60400
O2617       O  0.68482215  0.19306272  0.19856394    -0.72900
O2618       O  0.71394646  0.19133083  0.28795649    -0.71700
Cu2619     Cu  0.79543711  0.18590352  0.23401567     1.04600
Cu2620     Cu  0.69773064  0.19243474  0.24344754     1.04300
C2621       C  0.76333973  0.18767710  0.29862296     0.94600
C2622       C  0.72443841  0.19008484  0.17919375     0.93800
C2623       C  0.77682673  0.21903640  0.23892984     0.85900
C2624       C  0.72215720  0.15898848  0.23903496     0.92200
C2625       C  0.65679571  0.13586041  0.24792743     0.25000
C2626       C  0.71143135  0.14185180  0.24014950    -0.23100
C2627       C  0.75700329  0.13119745  0.23434532     0.19900
C2628       C  0.74810691  0.11508668  0.23648632     0.24900
C2629       C  0.69347878  0.10915014  0.24414000    -0.23100
C2630       C  0.64795077  0.11973418  0.24996009     0.19800
F2631       F  0.59464897  0.11451501  0.25804981    -0.13000
F2632       F  0.61168321  0.14555389  0.25376725    -0.15400
F2633       F  0.79279261  0.10531379  0.23017667    -0.15400
F2634       F  0.81052614  0.13625429  0.22626350    -0.13000
C2635       C  0.63665702  0.19099611  0.10515465     0.25000
C2636       C  0.67937941  0.18839967  0.08291215    -0.23100
C2637       C  0.73721494  0.18642844  0.09254337     0.19900
C2638       C  0.75198136  0.18712619  0.12360213     0.24900
C2639       C  0.70935658  0.18980028  0.14597204    -0.23100
C2640       C  0.65134479  0.19173774  0.13626711     0.19800
F2641       F  0.60827934  0.19435126  0.15678620    -0.13000
F2642       F  0.58072920  0.19323329  0.09679430    -0.15400
F2643       F  0.80823451  0.18515509  0.13161492    -0.15400
F2644       F  0.77986469  0.18357230  0.07190130    -0.13000
C2645       C  0.66226536  0.05860623  0.09761438     0.25000
C2646       C  0.71910381  0.06177955  0.08733818    -0.23100
C2647       C  0.76184491  0.06515656  0.10936044     0.19900
C2648       C  0.74844484  0.06512971  0.14064780     0.24900
C2649       C  0.69185004  0.06182215  0.15080862    -0.23100
C2650       C  0.64891516  0.05867459  0.12892042     0.19800
F2651       F  0.59414083  0.05523506  0.13781812    -0.13000
F2652       F  0.61910528  0.05538607  0.07746850    -0.15400
F2653       F  0.79096927  0.06865319  0.16099362    -0.15400
F2654       F  0.81685674  0.06852612  0.10077691    -0.13000
C2655       C  0.74245236  0.13568206  0.98581566     0.25000
C2656       C  0.68496283  0.14096998  0.98665006    -0.23100
C2657       C  0.64005878  0.12972894  0.98681223     0.19900
C2658       C  0.65251172  0.11371468  0.98748709     0.24900
C2659       C  0.71010603  0.10847385  0.98810751    -0.23100
C2660       C  0.75486431  0.11970077  0.98645730     0.19800
F2661       F  0.81121372  0.11529841  0.98536851    -0.13000
F2662       F  0.78717537  0.14594594  0.98482748    -0.15400
F2663       F  0.60790991  0.10339701  0.98798160    -0.15400
F2664       F  0.58368114  0.13414425  0.98639707    -0.13000
C2665       C  0.78035519  0.26317618  0.22937304     0.25000
C2666       C  0.83830928  0.26671804  0.23703168    -0.23100
C2667       C  0.87511460  0.25449062  0.24584927     0.19900
C2668       C  0.85461684  0.23910876  0.24705051     0.24900
C2669       C  0.79672882  0.23555021  0.23930531    -0.23100
C2670       C  0.75980189  0.24778791  0.23062143     0.19800
F2671       F  0.70424058  0.24483614  0.22238939    -0.13000
F2672       F  0.74362912  0.27457912  0.21992630    -0.15400
F2673       F  0.89140301  0.22771516  0.25647699    -0.15400
F2674       F  0.93056175  0.25745420  0.25424204    -0.13000
C2675       C  0.99604916  0.38178702  0.23011023     0.25000
C2676       C  0.95116473  0.39276449  0.23437477    -0.23100
C2677       C  0.89440999  0.38727328  0.23811280     0.19900
C2678       C  0.88299537  0.37120766  0.23836767     0.24900
C2679       C  0.92820443  0.36018702  0.23474977    -0.23100
C2680       C  0.98474248  0.36575504  0.23035776     0.19800
F2681       F  0.69174007  0.35576956  0.21746604    -0.13000
F2682       F  0.71434919  0.38661039  0.21566085    -0.15400
F2683       F  0.82739691  0.36654545  0.24244448    -0.15400
F2684       F  0.84993514  0.39740150  0.24233265    -0.13000
C2685       C  0.66649123  0.30845687  0.37177904     0.25000
C2686       C  0.96111504  0.31214640  0.39196226    -0.23100
C2687       C  0.90270987  0.31403211  0.38314997     0.19900
C2688       C  0.88675792  0.31411087  0.35217171     0.24900
C2689       C  0.92867189  0.31223211  0.32914796    -0.23100
C2690       C  0.98721972  0.31043914  0.33806486     0.19800
F2691       F  0.69376267  0.30542073  0.32003312    -0.13000
F2692       F  0.72166533  0.30490592  0.37982299    -0.15400
F2693       F  0.83012073  0.31597963  0.34486520    -0.15400
F2694       F  0.86070062  0.31605956  0.40451742    -0.13000
C2695       C  0.99751163  0.44062086  0.35194523     0.25000
C2696       C  0.95418479  0.44010387  0.32942140    -0.23100
C2697       C  0.89586608  0.43897622  0.33883030     0.19900
C2698       C  0.88154342  0.43832235  0.37002694     0.24900
C2699       C  0.92498725  0.43889256  0.39254442    -0.23100
C2700       C  0.98324289  0.44001399  0.38301300     0.19800
F2701       F  0.69951892  0.43226209  0.40356007    -0.13000
F2702       F  0.72711993  0.43320795  0.34348465    -0.15400
F2703       F  0.82505740  0.43728633  0.37813782    -0.15400
F2704       F  0.85246693  0.43823730  0.31789590    -0.13000
C2705       C  0.99246672  0.38629859  0.48578137     0.25000
C2706       C  0.93523219  0.39148403  0.48927729    -0.23100
C2707       C  0.89114524  0.38025298  0.49336200     0.19900
C2708       C  0.90363080  0.36427874  0.49274714     0.24900
C2709       C  0.96059862  0.35904087  0.48819990    -0.23100
C2710       C  0.00503318  0.37030957  0.48519076     0.19800
F2711       F  0.72502991  0.36467892  0.49407628    -0.13000
F2712       F  0.70361227  0.39550357  0.49289776    -0.15400
F2713       F  0.85949886  0.35398535  0.49640236    -0.15400
F2714       F  0.83551049  0.38466973  0.49818119    -0.13000
C2715       C  0.84812415  0.51114456  0.49983507     0.25000
C2716       C  0.79200970  0.51509273  0.48956119    -0.23100
C2717       C  0.75754199  0.50328227  0.47652296     0.19900
C2718       C  0.77846743  0.48794888  0.47408991     0.24900
C2719       C  0.83447940  0.48404562  0.48461780    -0.23100
C2720       C  0.86901973  0.49590071  0.49727866     0.19800
F2721       F  0.92292308  0.49275078  0.50795072    -0.13000
F2722       F  0.88326149  0.52200727  0.51279937    -0.15400
F2723       F  0.74388740  0.47698686  0.46101331    -0.15400
F2724       F  0.70400372  0.50656891  0.46549303    -0.13000
C2725       C  0.00160908  0.61571207  0.49528655     0.25000
C2726       C  0.70849800  0.60883404  0.49208333    -0.23100
C2727       C  0.75477678  0.61956465  0.48974673     0.19900
C2728       C  0.74511307  0.63564585  0.49206147     0.24900
C2729       C  0.68898625  0.64144728  0.49683316    -0.23100
C2730       C  0.99095793  0.63174327  0.49669608     0.19800
F2731       F  0.93500407  0.63649858  0.49800966    -0.13000
F2732       F  0.95586628  0.60577054  0.49589841    -0.15400
F2733       F  0.79100321  0.64547103  0.48971024    -0.15400
F2734       F  0.80979129  0.61456487  0.48505121    -0.13000
C2735       C  0.99585964  0.68368375  0.61553085     0.25000
C2736       C  0.68996641  0.68953773  0.59398349    -0.23100
C2737       C  0.74783275  0.68773387  0.60364991     0.19900
C2738       C  0.76202265  0.68771032  0.63482636     0.24900
C2739       C  0.71881361  0.68951947  0.65724254    -0.23100
C2740       C  0.01050651  0.68305909  0.64661790     0.19800
F2741       F  0.97139989  0.67718766  0.66678566    -0.13000
F2742       F  0.94317870  0.67828296  0.60678218    -0.15400
F2743       F  0.81832662  0.68591523  0.64291793    -0.15400
F2744       F  0.79101715  0.68566616  0.58296357    -0.13000
C2745       C  0.73467183  0.56128073  0.63806301     0.25000
C2746       C  0.67641550  0.56273572  0.64754248    -0.23100
C2747       C  0.98290779  0.56428266  0.62574631     0.19900
C2748       C  0.99850138  0.56433627  0.59473578     0.24900
C2749       C  0.70601332  0.56170897  0.58433504    -0.23100
C2750       C  0.74917158  0.56078823  0.60693337     0.19800
F2751       F  0.80562121  0.55915610  0.59903111    -0.13000
F2752       F  0.77826143  0.56043653  0.65886708    -0.15400
F2753       F  0.95656242  0.56704410  0.57358880    -0.15400
F2754       F  0.92655834  0.56658420  0.63319330    -0.13000
C2755       C  0.98305052  0.62019836  0.74253993     0.25000
C2756       C  0.68483590  0.60855612  0.74769214    -0.23100
C2757       C  0.74254674  0.61356061  0.74599310     0.19900
C2758       C  0.75600727  0.62945491  0.74725603     0.24900
C2759       C  0.71199873  0.64081537  0.75033182    -0.23100
C2760       C  0.99566338  0.63614513  0.74477864     0.19800
F2761       F  0.95333596  0.64665101  0.73843276    -0.13000
F2762       F  0.92846851  0.61602397  0.73450271    -0.15400
F2763       F  0.81251956  0.63362230  0.74523977    -0.15400
F2764       F  0.78622186  0.60312418  0.74241410    -0.13000
C2765       C  0.88958843  0.99704569  0.00619551     0.25000
C2766       C  0.85400028  0.98457318  0.99698470    -0.23100
C2767       C  0.79687230  0.98797147  0.98746621     0.19900
C2768       C  0.77605441  0.00333545  0.98736176     0.24900
C2769       C  0.81139195  0.01578575  0.99694391    -0.23100
C2770       C  0.86866634  0.01240506  0.00621017     0.19800
F2771       F  0.90491949  0.02394192  0.01555447    -0.13000
F2772       F  0.94470445  0.99444359  0.01561194    -0.15400
F2773       F  0.72143985  0.00598569  0.97722560    -0.15400
F2774       F  0.76073002  0.97645900  0.97786369    -0.13000
C2775       C  0.01711543  0.87034264  0.98990697     0.25000
C2776       C  0.97505881  0.85952567  0.00015684    -0.23100
C2777       C  0.92222640  0.86523537  0.01145629     0.19900
C2778       C  0.91156983  0.88128192  0.01233430     0.24900
C2779       C  0.95339628  0.89201712  0.00193375    -0.23100
C2780       C  0.00642104  0.88640649  0.99095738     0.19800
F2781       F  0.04714219  0.89641876  0.98013528    -0.13000
F2782       F  0.06844171  0.86544736  0.97824374    -0.15400
F2783       F  0.86034431  0.88633605  0.02386336    -0.15400
F2784       F  0.88091472  0.85535335  0.02208457    -0.13000
C2785       C  0.89070465  0.75242545  0.75126963     0.25000
C2786       C  0.85163706  0.76498766  0.75266983    -0.23100
C2787       C  0.79175268  0.76163253  0.75325083     0.19900
C2788       C  0.77173401  0.74619726  0.75248211     0.24900
C2789       C  0.81083970  0.73363998  0.75106065    -0.23100
C2790       C  0.87069817  0.73699776  0.75046685     0.19800
F2791       F  0.91053133  0.72536079  0.74936340    -0.13000
F2792       F  0.94861731  0.75498181  0.75087376    -0.15400
F2793       F  0.71380627  0.74363201  0.75276129    -0.15400
F2794       F  0.75192672  0.77327569  0.75415103    -0.13000
C2795       C  0.90236240  0.81265903  0.86738466     0.25000
C2796       C  0.94498262  0.81043103  0.84482106    -0.23100
C2797       C  0.00305346  0.80845567  0.85428764     0.19900
C2798       C  0.01781405  0.80863924  0.88538329     0.24900
C2799       C  0.97512834  0.81080928  0.90784573    -0.23100
C2800       C  0.91716518  0.81277317  0.89846656     0.19800
F2801       F  0.87451653  0.81513037  0.91934994    -0.13000
F2802       F  0.84611989  0.81477984  0.85952183    -0.15400
F2803       F  0.07390720  0.80639195  0.89345611    -0.15400
F2804       F  0.04617291  0.80647468  0.83353059    -0.13000
C2805       C  0.91963576  0.93636673  0.85322349     0.25000
C2806       C  0.97756342  0.93814651  0.84366218    -0.23100
C2807       C  0.02068347  0.93996841  0.86603887     0.19900
C2808       C  0.00627417  0.94025990  0.89719656     0.24900
C2809       C  0.94812979  0.93872911  0.90677683    -0.23100
C2810       C  0.90518214  0.93664202  0.88433052     0.19800
F2811       F  0.84887728  0.93490597  0.89235411    -0.13000
F2812       F  0.87661587  0.93410008  0.83249061    -0.15400
F2813       F  0.72072137  0.93661145  0.91839320    -0.15400
F2814       F  0.74674734  0.93687133  0.85801993    -0.13000
C2815       C  0.00787230  0.86313145  0.75194089     0.25000
C2816       C  0.95049222  0.85783159  0.74975334    -0.23100
C2817       C  0.90578224  0.86898784  0.74711147     0.19900
C2818       C  0.91797404  0.88496600  0.74720644     0.24900
C2819       C  0.97523549  0.89031996  0.74984609    -0.23100
C2820       C  0.02013345  0.87915476  0.75202404     0.19800
F2821       F  0.73588441  0.88453547  0.73377736    -0.13000
F2822       F  0.05229139  0.85285151  0.75460556    -0.15400
F2823       F  0.87321523  0.89515712  0.74490610    -0.15400
F2824       F  0.84971987  0.86451421  0.74417533    -0.13000
C2825       C  0.00844645  0.68723529  0.35582194     0.25000
C2826       C  0.95253725  0.68718322  0.34321778    -0.23100
C2827       C  0.90461905  0.68722930  0.36330795     0.19900
C2828       C  0.91252107  0.68752303  0.39509014     0.24900
C2829       C  0.96845150  0.68784391  0.40768025    -0.23100
C2830       C  0.01634416  0.68755636  0.38759691     0.19800
F2831       F  0.72831389  0.68289779  0.40037626    -0.13000
F2832       F  0.05579084  0.68732929  0.33744368    -0.15400
F2833       F  0.86513606  0.68779303  0.41344671    -0.15400
F2834       F  0.84967679  0.68696182  0.35233585    -0.13000
C2835       C  0.82510016  0.56539541  0.38533144     0.25000
C2836       C  0.76963373  0.56333885  0.39791813    -0.23100
C2837       C  0.72214960  0.56164649  0.37771685     0.19900
C2838       C  0.73024552  0.56166638  0.34593649     0.24900
C2839       C  0.78587049  0.56329223  0.33348718    -0.23100
C2840       C  0.83312747  0.56533861  0.35357593     0.19800
F2841       F  0.88745766  0.56748513  0.34255702    -0.13000
F2842       F  0.87203092  0.56734845  0.40365025    -0.15400
F2843       F  0.68362624  0.55966172  0.32741390    -0.15400
F2844       F  0.66750869  0.55986915  0.38852730    -0.13000
C2845       C  0.68879176  0.49733712  0.22403935     0.25000
C2846       C  0.72307403  0.48510363  0.23550148    -0.23100
C2847       C  0.77984141  0.48856592  0.24549771     0.19900
C2848       C  0.80076383  0.50389802  0.24513344     0.24900
C2849       C  0.76565852  0.51621281  0.23479019    -0.23100
C2850       C  0.70975637  0.51266531  0.22362930     0.19800
F2851       F  0.67497193  0.52401031  0.21207346    -0.13000
F2852       F  0.63503788  0.49451761  0.21279128    -0.15400
F2853       F  0.85511793  0.50665125  0.25559948    -0.15400
F2854       F  0.81534128  0.47716811  0.25619271    -0.13000
C2855       C  0.82483202  0.63603355  0.25462085     0.25000
C2856       C  0.88155128  0.64151885  0.25020422    -0.23100
C2857       C  0.92598094  0.63049944  0.24472093     0.19900
C2858       C  0.91395303  0.61455008  0.24340035     0.24900
C2859       C  0.85726283  0.60911119  0.24728434    -0.23100
C2860       C  0.81284336  0.62001872  0.25321198     0.19800
F2861       F  0.75761747  0.61521044  0.25800253    -0.13000
F2862       F  0.78069400  0.64610417  0.26011448    -0.15400
F2863       F  0.95786221  0.60448437  0.23736366    -0.15400
F2864       F  0.98151852  0.63505617  0.24007496    -0.13000
C2865       C  0.83807017  0.68634910  0.85624675     0.25000
C2866       C  0.78311436  0.68460478  0.84304882    -0.23100
C2867       C  0.73492237  0.68249234  0.86243186     0.19900
C2868       C  0.74119012  0.68279479  0.89428551     0.24900
C2869       C  0.79583143  0.68521099  0.90760142    -0.23100
C2870       C  0.84442617  0.68669544  0.88810232     0.19800
F2871       F  0.89848385  0.68860871  0.89967379    -0.13000
F2872       F  0.88564291  0.68824612  0.83839336    -0.15400
F2873       F  0.69338853  0.68093089  0.91196278    -0.15400
F2874       F  0.68135785  0.68005069  0.85059493    -0.13000
C2875       C  0.80824820  0.74588429  0.00025613     0.25000
C2876       C  0.76835269  0.73355007  0.00283829    -0.23100
C2877       C  0.70894173  0.73728862  0.00537659     0.19900
C2878       C  0.69016738  0.75284886  0.00499877     0.24900
C2879       C  0.72998882  0.76516247  0.00194608    -0.23100
C2880       C  0.78946265  0.76142981  0.99988663     0.19800
F2881       F  0.83017650  0.77280940  0.99771476    -0.13000
F2882       F  0.86582989  0.74300095  0.99814730    -0.15400
F2883       F  0.98027121  0.75804974  0.02977771    -0.15400
F2884       F  0.66833626  0.72590840  0.00802676    -0.13000
C2885       C  0.91485314  0.68785838  0.10349127     0.25000
C2886       C  0.85636689  0.68759284  0.09406023    -0.23100
C2887       C  0.81309355  0.68745222  0.11667071     0.19900
C2888       C  0.82778091  0.68779718  0.14781681     0.24900
C2889       C  0.88628162  0.68826010  0.15718324    -0.23100
C2890       C  0.92949562  0.68814949  0.13458669     0.19800
F2891       F  0.98623983  0.68853667  0.14247748    -0.13000
F2892       F  0.95847435  0.68771151  0.08266740    -0.15400
F2893       F  0.78437213  0.68745085  0.16876099    -0.15400
F2894       F  0.75635707  0.68717644  0.10873971    -0.13000
C2895       C  0.00639031  0.56301404  0.85400303     0.25000
C2896       C  0.95748946  0.56304576  0.83454988    -0.23100
C2897       C  0.90220217  0.56350775  0.84782460     0.19900
C2898       C  0.89590474  0.56351440  0.87971397     0.24900
C2899       C  0.94485640  0.56309642  0.89911873    -0.23100
C2900       C  0.00009749  0.56304105  0.88581104     0.19800
F2901       F  0.04840795  0.56263228  0.90349495    -0.13000
F2902       F  0.72187216  0.55977594  0.84047002    -0.15400
F2903       F  0.84158812  0.56394172  0.89147422    -0.15400
F2904       F  0.85399886  0.56362921  0.83004651    -0.13000
C2905       C  0.91507467  0.56502472  0.13883910     0.25000
C2906       C  0.85833627  0.56156802  0.14850103    -0.23100
C2907       C  0.81758837  0.55673598  0.12666016     0.19900
C2908       C  0.83296999  0.55542212  0.09578914     0.24900
C2909       C  0.88941087  0.55927376  0.08579332    -0.23100
C2910       C  0.93034629  0.56400701  0.10783493     0.19800
F2911       F  0.98506862  0.56785532  0.09949567    -0.13000
F2912       F  0.95568869  0.56974204  0.15934909    -0.15400
F2913       F  0.79210767  0.55031196  0.07579208    -0.15400
F2914       F  0.76308939  0.55280098  0.13528779    -0.13000
C2915       C  0.82577744  0.61294041  0.99680803     0.25000
C2916       C  0.88283200  0.60753242  0.99388697    -0.23100
C2917       C  0.92799514  0.61862276  0.99190909     0.19900
C2918       C  0.91644106  0.63464060  0.99345777     0.24900
C2919       C  0.85946788  0.64006004  0.99704570    -0.23100
C2920       C  0.81419496  0.62895564  0.99836775     0.19800
F2921       F  0.75821490  0.63349458  0.00117628    -0.13000
F2922       F  0.78090188  0.60275585  0.99873422    -0.15400
F2923       F  0.96141959  0.64479210  0.99155971    -0.15400
F2924       F  0.98377939  0.61404847  0.98823486    -0.13000
C2925       C  0.67094149  0.19144760  0.87706036     0.25000
C2926       C  0.62352469  0.18735317  0.89598831    -0.23100
C2927       C  0.90223847  0.18476238  0.88391288     0.19900
C2928       C  0.89518846  0.18439960  0.85204219     0.24900
C2929       C  0.94216410  0.18753179  0.83236985    -0.23100
C2930       C  0.99613635  0.19111459  0.84522966     0.19800
F2931       F  0.71213521  0.19541686  0.82780961    -0.13000
F2932       F  0.72216463  0.19610712  0.88924421    -0.15400
F2933       F  0.84239596  0.18071430  0.84047020    -0.15400
F2934       F  0.85583817  0.18159901  0.90193660    -0.13000
C2935       C  0.73810692  0.06419058  0.84946030     0.25000
C2936       C  0.79344665  0.06312757  0.83633389    -0.23100
C2937       C  0.84204105  0.06245400  0.85596675     0.19900
C2938       C  0.83526932  0.06236937  0.88777199     0.24900
C2939       C  0.77988944  0.06296244  0.90083704    -0.23100
C2940       C  0.73139523  0.06409515  0.88129962     0.19800
F2941       F  0.67714820  0.06528160  0.89292646    -0.13000
F2942       F  0.69017059  0.06513671  0.83158747    -0.15400
F2943       F  0.88309217  0.06133128  0.90571323    -0.15400
F2944       F  0.89658524  0.06186022  0.84455280    -0.13000
C2945       C  0.69367721  0.99525776  0.73585785     0.25000
C2946       C  0.72940833  0.98349251  0.74792408    -0.23100
C2947       C  0.78588062  0.98756810  0.75748643     0.19900
C2948       C  0.80577169  0.00297303  0.75519612     0.24900
C2949       C  0.76979326  0.01477484  0.74341566    -0.23100
C2950       C  0.71353470  0.01065779  0.73358192     0.19800
F2951       F  0.67735300  0.02150011  0.72140489    -0.13000
F2952       F  0.63962992  0.99187920  0.72566692    -0.15400
F2953       F  0.86001789  0.00631519  0.76514875    -0.15400
F2954       F  0.82210436  0.97669934  0.76954791    -0.13000
C2955       C  0.92165420  0.13004559  0.73385428     0.25000
C2956       C  0.87793940  0.14098968  0.74117851    -0.23100
C2957       C  0.82311886  0.13535018  0.74976353     0.19900
C2958       C  0.81237411  0.11925939  0.75092596     0.24900
C2959       C  0.85620642  0.10840596  0.74362815    -0.23100
C2960       C  0.91094864  0.11400150  0.73525798     0.19800
F2961       F  0.95388755  0.10395633  0.72741169    -0.13000
F2962       F  0.97501857  0.13476874  0.72478456    -0.15400
F2963       F  0.75907332  0.11432122  0.75969929    -0.15400
F2964       F  0.77981282  0.14534028  0.75730319    -0.13000
C2965       C  0.90590845  0.06399263  0.34923232     0.25000
C2966       C  0.96117375  0.06219470  0.33621885    -0.23100
C2967       C  0.68332230  0.05913531  0.35745704     0.19900
C2968       C  0.00184990  0.06034341  0.38790490     0.24900
C2969       C  0.94667945  0.06210154  0.40082673    -0.23100
C2970       C  0.89876415  0.06395763  0.38109513     0.19800
F2971       F  0.84469723  0.06594934  0.39256946    -0.13000
F2972       F  0.85839256  0.06562751  0.33123025    -0.15400
F2973       F  0.72191535  0.05518075  0.40737450    -0.15400
F2974       F  0.73584603  0.05515479  0.34598927    -0.13000
C2975       C  0.91388270  0.06067663  0.64061338     0.25000
C2976       C  0.85558174  0.06040138  0.65030177    -0.23100
C2977       C  0.81183623  0.06017843  0.62796054     0.19900
C2978       C  0.82579995  0.06029326  0.59678869     0.24900
C2979       C  0.88406484  0.06070802  0.58707826    -0.23100
C2980       C  0.92785125  0.06084914  0.60942406     0.19800
F2981       F  0.98443902  0.06097384  0.60119860    -0.13000
F2982       F  0.95784989  0.06098576  0.66125778    -0.15400
F2983       F  0.78178024  0.06014902  0.57617848    -0.15400
F2984       F  0.75527049  0.05965791  0.63617320    -0.13000
C2985       C  0.72914419  0.18685779  0.38402280     0.25000
C2986       C  0.78459666  0.18575474  0.39698783    -0.23100
C2987       C  0.83279831  0.18456756  0.37728075     0.19900
C2988       C  0.82593255  0.18496819  0.34547795     0.24900
C2989       C  0.77069336  0.18656496  0.33242761    -0.23100
C2990       C  0.72220756  0.18725178  0.35216107     0.19800
F2991       F  0.66769000  0.18837241  0.34079897    -0.13000
F2992       F  0.68155335  0.18801499  0.40210018    -0.15400
F2993       F  0.87378665  0.18403590  0.32756826    -0.15400
F2994       F  0.88710477  0.18297104  0.38869718    -0.13000
C2995       C  0.70049356  0.23740601  0.49678521     0.25000
C2996       C  0.75850693  0.23375703  0.48934796    -0.23100
C2997       C  0.79482545  0.24597534  0.47958866     0.19900
C2998       C  0.77417288  0.26134352  0.47771164     0.24900
C2999       C  0.71641589  0.26503031  0.48562602    -0.23100
C3000       C  0.67984434  0.25277971  0.49490492     0.19800
F3001       F  0.62396281  0.25561964  0.50259250    -0.13000
F3002       F  0.66316892  0.22611900  0.50609702    -0.15400
F3003       F  0.81121430  0.27258779  0.46787993    -0.15400
F3004       F  0.85047536  0.24311639  0.47144157    -0.13000
C3005       C  0.81211452  0.18437401  0.60524215     0.25000
C3006       C  0.85373354  0.18787533  0.58275092    -0.23100
C3007       C  0.91122038  0.19085874  0.59232262     0.19900
C3008       C  0.92598141  0.19073903  0.62348634     0.24900
C3009       C  0.88384861  0.18768738  0.64584856    -0.23100
C3010       C  0.82690560  0.18434693  0.63632658     0.19800
F3011       F  0.78533406  0.18074365  0.65713814    -0.13000
F3012       F  0.75684304  0.18089356  0.59731225    -0.15400
F3013       F  0.98123375  0.19404839  0.63177822    -0.15400
F3014       F  0.95362154  0.19390000  0.57163700    -0.13000
C3015       C  0.82627696  0.11369707  0.48006729     0.25000
C3016       C  0.87967286  0.10825657  0.49122804    -0.23100
C3017       C  0.92125338  0.11934265  0.50093769     0.19900
C3018       C  0.90964966  0.13536104  0.49947972     0.24900
C3019       C  0.85613272  0.14073164  0.48863696    -0.23100
C3020       C  0.81461261  0.12973077  0.47887189     0.19800
F3021       F  0.76274192  0.13449927  0.46767656    -0.13000
F3022       F  0.78535387  0.10355513  0.46994685    -0.15400
F3023       F  0.95007301  0.14558594  0.50985816    -0.15400
F3024       F  0.97304211  0.11476226  0.51254259    -0.13000
C3025       C  0.80985799  0.31045123  0.09733194     0.25000
C3026       C  0.85837366  0.31333744  0.07836375    -0.23100
C3027       C  0.91161837  0.31687935  0.09227626     0.19900
C3028       C  0.91634313  0.31737692  0.12421156     0.24900
C3029       C  0.86785739  0.31442266  0.14300772    -0.23100
C3030       C  0.81459463  0.31109435  0.12920337     0.19800
F3031       F  0.76732467  0.30788063  0.14653833    -0.13000
F3032       F  0.75742800  0.30682585  0.08524976    -0.15400
F3033       F  0.96854964  0.32089644  0.13670560    -0.15400
F3034       F  0.95939072  0.31978924  0.07511526    -0.13000
C3035       C  0.94940596  0.26277754  0.97870908     0.25000
C3036       C  0.89060963  0.26632317  0.98436097    -0.23100
C3037       C  0.85320222  0.25407468  0.99251474     0.19900
C3038       C  0.87386986  0.23880562  0.99539687     0.24900
C3039       C  0.93271234  0.23524123  0.98994287    -0.23100
C3040       C  0.97009883  0.24746601  0.98151143     0.19800
F3041       F  0.68511745  0.24365841  0.97462887    -0.13000
F3042       F  0.98741185  0.27409556  0.97033879    -0.15400
F3043       F  0.83557535  0.22753004  0.00360242    -0.15400
F3044       F  0.79634366  0.25679959  0.99806336    -0.13000
C3045       C  0.75046601  0.43385123  0.09819566     0.25000
C3046       C  0.70349014  0.43708612  0.07858428    -0.23100
C3047       C  0.64920446  0.44026695  0.09147112     0.19900
C3048       C  0.97647152  0.43692704  0.12408141     0.24900
C3049       C  0.68940470  0.43746084  0.14306441    -0.23100
C3050       C  0.74349618  0.43398800  0.13000411     0.19800
F3051       F  0.79009539  0.43082833  0.14789456    -0.13000
F3052       F  0.80342938  0.43038772  0.08661522    -0.15400
F3053       F  0.92179024  0.43854197  0.13493386    -0.15400
F3054       F  0.93687949  0.43723675  0.07398210    -0.13000
C3055       C  0.93636436  0.50183831  0.99179465     0.25000
C3056       C  0.97552755  0.51432648  0.98958293    -0.23100
C3057       C  0.03500561  0.51091306  0.98610585     0.19900
C3058       C  0.71685236  0.49655758  0.99918736     0.24900
C3059       C  0.68236653  0.48498920  0.98542219    -0.23100
C3060       C  0.95602770  0.48639049  0.99122143     0.19800
F3061       F  0.91638716  0.47478979  0.99433539    -0.13000
F3062       F  0.87887250  0.50451104  0.99504479    -0.15400
F3063       F  0.76908295  0.49290138  0.01142365    -0.15400
F3064       F  0.07449199  0.52253152  0.98278222    -0.13000
C3065       C  0.72934925  0.38061496  0.97664286     0.25000
C3066       C  0.77083046  0.39145233  0.98742467    -0.23100
C3067       C  0.82356709  0.38575740  0.99899127     0.19900
C3068       C  0.83471175  0.36970025  0.99945660     0.24900
C3069       C  0.79338120  0.35896314  0.98845132    -0.23100
C3070       C  0.74045714  0.36457347  0.97733634     0.19800
F3071       F  0.70026160  0.35457533  0.96591781    -0.13000
F3072       F  0.67826674  0.38547756  0.96462184    -0.15400
F3073       F  0.88585359  0.36464038  0.01111714    -0.15400
F3074       F  0.86431701  0.39566254  0.01016648    -0.13000
C3075       C  0.75210728  0.31561640  0.62434664     0.25000
C3076       C  0.70397421  0.31411096  0.64400109    -0.23100
C3077       C  0.64847188  0.31314451  0.63114291     0.19900
C3078       C  0.64140194  0.31293268  0.59936540     0.24900
C3079       C  0.68980662  0.31369343  0.57962973    -0.23100
C3080       C  0.74510080  0.31540214  0.59256291     0.19800
F3081       F  0.79277201  0.31662302  0.57457592    -0.13000
F3082       F  0.80633500  0.31736207  0.63580357    -0.15400
F3083       F  0.92509982  0.31160543  0.58635177    -0.15400
F3084       F  0.93905928  0.31165555  0.64745265    -0.13000
C3085       C  0.69495592  0.23821024  0.72203519     0.25000
C3086       C  0.97092567  0.23425843  0.73776957    -0.23100
C3087       C  0.93271834  0.24671262  0.73237694     0.19900
C3088       C  0.95304837  0.26212931  0.73159062     0.24900
C3089       C  0.68160593  0.26532813  0.73741528    -0.23100
C3090       C  0.71451578  0.25368253  0.72286943     0.19800
F3091       F  0.76501748  0.25729083  0.70869115    -0.13000
F3092       F  0.72778019  0.22742317  0.70726983    -0.15400
F3093       F  0.91465465  0.27372076  0.72551010    -0.15400
F3094       F  0.87573365  0.24399468  0.72718472    -0.13000
C3095       C  0.72687421  0.31284738  0.85169394     0.25000
C3096       C  0.76997264  0.31099403  0.82927071    -0.23100
C3097       C  0.82819441  0.30962467  0.83882933     0.19900
C3098       C  0.84271119  0.31014973  0.86992647     0.24900
C3099       C  0.79960515  0.31197029  0.89224077    -0.23100
C3100       C  0.74145013  0.31333090  0.88275203     0.19800
F3101       F  0.69831673  0.31536243  0.90349532    -0.13000
F3102       F  0.67033416  0.31415158  0.84372096    -0.15400
F3103       F  0.89895850  0.30849844  0.87818642    -0.15400
F3104       F  0.87159383  0.30783881  0.81817610    -0.13000
C3105       C  0.80880187  0.43607083  0.62500588     0.25000
C3106       C  0.85826531  0.43713130  0.64391453    -0.23100
C3107       C  0.91296240  0.43786804  0.63010749     0.19900
C3108       C  0.91816181  0.43789950  0.59821247     0.24900
C3109       C  0.86863451  0.43711674  0.57923280    -0.23100
C3110       C  0.81396973  0.43605358  0.59308597     0.19800
F3111       F  0.76519188  0.43523592  0.57583887    -0.13000
F3112       F  0.75505667  0.43490662  0.63731158    -0.15400
F3113       F  0.97212132  0.43867830  0.58606361    -0.15400
F3114       F  0.96162801  0.43891121  0.64740487    -0.13000
C3115       C  0.94792270  0.48789334  0.74728011     0.25000
C3116       C  0.88960335  0.48430903  0.74049714    -0.23100
C3117       C  0.85183621  0.49669420  0.73358202     0.19900
C3118       C  0.87180462  0.51214269  0.73300770     0.24900
C3119       C  0.93034872  0.51570558  0.73934134    -0.23100
C3120       C  0.96792919  0.50333206  0.74666671     0.19800
F3121       F  0.02427587  0.50608764  0.75353115    -0.13000
F3122       F  0.98620533  0.47647712  0.75469556    -0.15400
F3123       F  0.83325707  0.52358209  0.72612597    -0.15400
F3124       F  0.79537964  0.49392640  0.72705296    -0.13000
C3125       C  0.74383246  0.43606431  0.83963866     0.25000
C3126       C  0.80200951  0.43748479  0.83026866    -0.23100
C3127       C  0.84510785  0.43891168  0.85276206     0.19900
C3128       C  0.83031175  0.43937536  0.88385995     0.24900
C3129       C  0.77187536  0.43830456  0.89323121    -0.23100
C3130       C  0.72901175  0.43645760  0.87065858     0.19800
F3131       F  0.67239350  0.43512560  0.87842428    -0.13000
F3132       F  0.70082886  0.43409313  0.81877535    -0.15400
F3133       F  0.87361399  0.44081742  0.90470504    -0.15400
F3134       F  0.90159476  0.44021147  0.84471675    -0.13000
C3135       C  0.73906194  0.38584231  0.74100039     0.25000
C3136       C  0.79456569  0.39126403  0.73354834    -0.23100
C3137       C  0.83776029  0.38029473  0.72592710     0.19900
C3138       C  0.82612490  0.36426420  0.72658168     0.24900
C3139       C  0.77090571  0.35877571  0.73480187    -0.23100
C3140       C  0.72731186  0.36982831  0.74165509     0.19800
F3141       F  0.67306784  0.36524339  0.74946445    -0.13000
F3142       F  0.69637518  0.39600191  0.74866187    -0.15400
F3143       F  0.86910770  0.35417779  0.71901360    -0.15400
F3144       F  0.89144160  0.38505824  0.71744228    -0.13000
C3145       C  0.99266458  0.81724243  0.11306275     0.25000
C3146       C  0.70465730  0.81406636  0.09419662    -0.23100
C3147       C  0.75887974  0.81154247  0.10767467     0.19900
C3148       C  0.76462782  0.81132802  0.13952471     0.24900
C3149       C  0.71608699  0.81369763  0.15872204    -0.23100
C3150       C  0.66222013  0.81682580  0.14509567     0.19800
F3151       F  0.95220061  0.81909256  0.16280447    -0.13000
F3152       F  0.93926666  0.82023555  0.10150863    -0.15400
F3153       F  0.81801046  0.80862405  0.15136335    -0.15400
F3154       F  0.80618280  0.80872752  0.09009058    -0.13000
C3155       C  0.72186586  0.75333859  0.25862229     0.25000
C3156       C  0.68419183  0.76577897  0.25231781    -0.23100
C3157       C  0.96678116  0.76178244  0.25931547     0.19900
C3158       C  0.94579026  0.74648081  0.25814992     0.24900
C3159       C  0.98199732  0.73409950  0.24941317    -0.23100
C3160       C  0.04040046  0.73746806  0.24226365     0.19800
F3161       F  0.07765596  0.72595898  0.23399695    -0.13000
F3162       F  0.77821711  0.75606958  0.26541564    -0.15400
F3163       F  0.88990947  0.74383520  0.26604682    -0.15400
F3164       F  0.92960453  0.77321497  0.26807778    -0.13000
C3165       C  0.82061292  0.93846082  0.13718999     0.25000
C3166       C  0.86809314  0.93585447  0.15704124    -0.23100
C3167       C  0.92256816  0.93280636  0.14400887     0.19900
C3168       C  0.92978282  0.93301009  0.11213475     0.24900
C3169       C  0.88264949  0.93615848  0.09253427    -0.23100
C3170       C  0.82789435  0.93858727  0.10542282     0.19800
F3171       F  0.78146302  0.94164771  0.08733510    -0.13000
F3172       F  0.76668402  0.94108963  0.14831675    -0.15400
F3173       F  0.98299802  0.92994613  0.10046495    -0.15400
F3174       F  0.96912011  0.92972453  0.16198256    -0.13000
C3175       C  0.94856702  0.98795659  0.26043618     0.25000
C3176       C  0.89310000  0.98394479  0.24928369    -0.23100
C3177       C  0.85957351  0.99559083  0.23517696     0.19900
C3178       C  0.88076197  0.01081637  0.23229425     0.24900
C3179       C  0.93607062  0.01485827  0.24358758    -0.23100
C3180       C  0.96977839  0.00319528  0.25753774     0.19800
F3181       F  0.02287358  0.00655148  0.26909042    -0.13000
F3182       F  0.98245031  0.97718911  0.27458537    -0.15400
F3183       F  0.84697734  0.02155317  0.21799640    -0.15400
F3184       F  0.80660362  0.99223545  0.22346053    -0.13000
C3185       C  0.74380606  0.88564539  0.25311316     0.25000
C3186       C  0.80031507  0.89110838  0.24864929    -0.23100
C3187       C  0.84530010  0.88017697  0.24431718     0.19900
C3188       C  0.83409333  0.86414834  0.24503359     0.24900
C3189       C  0.77764561  0.85864186  0.25007245    -0.23100
C3190       C  0.73253199  0.86964182  0.25385833     0.19800
F3191       F  0.67708862  0.86502575  0.25859447    -0.13000
F3192       F  0.69940706  0.89576095  0.25763652    -0.15400
F3193       F  0.87876296  0.85408680  0.24082935    -0.15400
F3194       F  0.90042926  0.88494869  0.23907481    -0.13000
C3195       C  0.92206676  0.81341723  0.60727226     0.25000
C3196       C  0.86654408  0.81367451  0.59422346    -0.23100
C3197       C  0.81806139  0.81410092  0.61389706     0.19900
C3198       C  0.82494878  0.81383500  0.64574095     0.24900
C3199       C  0.88043255  0.81313085  0.65878670    -0.23100
C3200       C  0.92896994  0.81313118  0.63910646     0.19800
F3201       F  0.98358810  0.81288734  0.65053451    -0.13000
F3202       F  0.96995852  0.81307151  0.58929959    -0.15400
F3203       F  0.77704989  0.81396589  0.66371033    -0.15400
F3204       F  0.76356735  0.81484994  0.60242084    -0.13000
C3205       C  0.88302168  0.73874624  0.50874244     0.25000
C3206       C  0.94148771  0.73550180  0.50159866    -0.23100
C3207       C  0.97739449  0.74796819  0.49280325     0.19900
C3208       C  0.95583072  0.76323325  0.49156222     0.24900
C3209       C  0.89750492  0.76647536  0.49899586    -0.23100
C3210       C  0.86138151  0.75397300  0.50728921     0.19800
F3211       F  0.80491148  0.75639819  0.51433578    -0.13000
F3212       F  0.84612857  0.72720305  0.51731081    -0.15400
F3213       F  0.99248454  0.77480375  0.48284001    -0.15400
F3214       F  0.03341843  0.74545011  0.48497828    -0.13000
C3215       C  0.84544304  0.80954315  0.38597505     0.25000
C3216       C  0.80282052  0.81204092  0.40827771    -0.23100
C3217       C  0.74519957  0.81450857  0.39877681     0.19900
C3218       C  0.73053348  0.81429171  0.36764098     0.24900
C3219       C  0.77302434  0.81150262  0.34524454    -0.23100
C3220       C  0.83085627  0.80922193  0.35489966     0.19800
F3221       F  0.87394341  0.80668804  0.33436002    -0.13000
F3222       F  0.90127009  0.80700141  0.39422001    -0.15400
F3223       F  0.67467087  0.81684557  0.35954121    -0.15400
F3224       F  0.70293902  0.81744406  0.41960380    -0.13000
C3225       C  0.74900009  0.93645369  0.64231269     0.25000
C3226       C  0.69535259  0.93432709  0.65662987    -0.23100
C3227       C  0.98868235  0.93279759  0.63831688     0.19900
C3228       C  0.99450530  0.93275424  0.60639904     0.24900
C3229       C  0.70355190  0.93468749  0.59173404    -0.23100
C3230       C  0.75315912  0.93662855  0.61040030     0.19800
F3231       F  0.80633795  0.93885565  0.59796327    -0.13000
F3232       F  0.79754083  0.93892691  0.65914493    -0.15400
F3233       F  0.94682132  0.93017241  0.58895589    -0.15400
F3234       F  0.93560493  0.93002934  0.65045929    -0.13000
C3235       C  0.95431804  0.98712381  0.49722415     0.25000
C3236       C  0.67386948  0.98364439  0.49849773    -0.23100
C3237       C  0.71224476  0.99559970  0.50714967     0.19900
C3238       C  0.69420707  0.01116552  0.50765242     0.31300
C3239       C  0.97300088  0.01512600  0.49903646    -0.23100
C3240       C  0.93423722  0.00254317  0.49637451     0.19800
F3241       F  0.87667783  0.00506987  0.49289806    -0.13000
F3242       F  0.91490936  0.97543223  0.49468396    -0.15400
F3243       F  0.73314064  0.02217167  0.51641891    -0.15400
F3244       F  0.76751728  0.99230718  0.51538857    -0.13000
C3245       C  0.73922175  0.93718287  0.35120952     0.25000
C3246       C  0.79795481  0.93856846  0.34262044    -0.23100
C3247       C  0.83985840  0.93973060  0.36577323     0.19900
C3248       C  0.82366789  0.93972867  0.39665835     0.24900
C3249       C  0.76486550  0.93847073  0.40533891    -0.23100
C3250       C  0.72302314  0.93703584  0.38215675     0.19800
F3251       F  0.66627248  0.93546900  0.38934526    -0.13000
F3252       F  0.69713431  0.93567022  0.32968694    -0.15400
F3253       F  0.86622636  0.94079890  0.41801486    -0.15400
F3254       F  0.89672800  0.94113449  0.35861261    -0.13000
C3255       C  0.72561090  0.87942212  0.49275443     0.25000
C3256       C  0.76820748  0.89078954  0.49934095    -0.23100
C3257       C  0.82404626  0.88578910  0.50748890     0.19900
C3258       C  0.83704437  0.86989394  0.50887753     0.24900
C3259       C  0.79448656  0.85858155  0.50229287    -0.23100
C3260       C  0.73861046  0.86351410  0.49436653     0.19800
F3261       F  0.69691007  0.85296948  0.48711160    -0.13000
F3262       F  0.67129594  0.88360281  0.48426480    -0.15400
F3263       F  0.89146943  0.86561222  0.51701591    -0.15400
F3264       F  0.86636243  0.89622795  0.51430429    -0.13000
loop_ 
_geom_bond_atom_site_label_1 
_geom_bond_atom_site_label_2 
_geom_bond_distance 
_geom_bond_site_symmetry_2 
_ccdc_geom_bond_type 
O1           Cu9   1.976   1_655  S
O1           C11   1.271   1_655  A
O2           Cu9   1.970       .  S
O2           C12   1.271       .  A
O3           Cu9   2.040       .  S
O3           C13   1.284       .  A
O4           Cu9   2.042       .  S
O4           C14   1.284       .  A
O5          Cu10   1.976       .  S
O5           C14   1.272       .  A
O6          Cu10   1.971       .  S
O6           C13   1.271       .  A
O7          Cu10   2.034       .  S
O7           C12   1.283       .  A
O8          Cu10   2.035       .  S
O8           C11   1.284       .  A
Cu9         Cu10   2.365       .  S
C11        C1060   1.489       .  S
C12        C1080   1.482       .  S
C13        C1053   1.488       .  S
C14        C1073   1.489       .  S
O15         Cu23   1.974       .  S
O15          C25   1.272       .  A
O16         Cu23   1.977       .  S
O16          C26   1.272       .  A
O17         Cu23   2.034       .  S
O17          C27   1.283       .  A
O18         Cu23   2.036       .  S
O18          C28   1.283       .  A
O19         Cu24   1.980       .  S
O19          C28   1.273       .  A
O20         Cu24   1.979       .  S
O20          C27   1.273       .  A
O21         Cu24   2.032       .  S
O21          C26   1.283       .  A
O22         Cu24   2.028       .  S
O22          C25   1.282       .  A
Cu23        Cu24   2.365       .  S
C25        C1083   1.486       .  S
C26        C1033   1.487       .  S
C27        C1040   1.483       .  S
C28        C1020   1.490       .  S
O29         Cu37   1.975       .  S
O29          C39   1.272       .  A
O30         Cu37   1.979       .  S
O30          C40   1.272       .  A
O31         Cu37   2.040       .  S
O31          C41   1.284       .  A
O32         Cu37   2.038       .  S
O32          C42   1.283       .  A
O33         Cu38   1.970       .  S
O33          C42   1.271       .  A
O34         Cu38   1.976       .  S
O34          C41   1.272       .  A
O35         Cu38   2.046       .  S
O35          C40   1.285       .  A
O36         Cu38   2.040       .  S
O36          C39   1.284       .  A
Cu37        Cu38   2.366       .  S
C39        C1010   1.484       .  S
C40        C1000   1.493       .  S
C41        C1070   1.487       .  S
C42         C990   1.482       .  S
O43         Cu51   1.969       .  S
O43          C53   1.271       .  A
O44         Cu51   1.975       .  S
O44          C54   1.272       .  A
O45         Cu51   2.033       .  S
O45          C55   1.283       .  A
O46         Cu51   2.032       .  S
O46          C56   1.283       .  A
O47         Cu52   1.979       .  S
O47          C56   1.273       .  A
O48         Cu52   1.980       .  S
O48          C55   1.273       .  A
O49         Cu52   2.045       .  S
O49          C54   1.284       .  A
O50         Cu52   2.042       .  S
O50          C53   1.284       .  A
Cu51        Cu52   2.363       .  S
C53        C1013   1.489       .  S
C54         C980   1.491       .  S
C55        C1043   1.489       .  S
C56         C973   1.488       .  S
O57         Cu65   1.982       .  S
O57          C67   1.273       .  A
O58         Cu65   1.980       .  S
O58          C68   1.272       .  A
O59         Cu65   2.035       .  S
O59          C69   1.283       .  A
O60         Cu65   2.034       .  S
O60          C70   1.283       .  A
O61         Cu66   1.980       .  S
O61          C70   1.273       .  A
O62         Cu66   1.977       .  S
O62          C69   1.272       .  A
O63         Cu66   2.046       .  S
O63          C68   1.285       .  A
O64         Cu66   2.051       .  S
O64          C67   1.285       .  A
Cu65        Cu66   2.365       .  S
C67         C940   1.492       .  S
C68         C960   1.488       .  S
C69         C930   1.488       .  S
C70         C950   1.490       .  S
O71         Cu79   1.982       .  S
O71          C81   1.273       .  A
O72         Cu79   1.984   1_655  S
O72          C82   1.273   1_655  A
O73         Cu79   2.032       .  S
O73          C83   1.283       .  A
O74         Cu79   2.027       .  S
O74          C84   1.282       .  A
O75         Cu80   1.984       .  S
O75          C84   1.273       .  A
O76         Cu80   1.977       .  S
O76          C83   1.272       .  A
O77         Cu80   2.044       .  S
O77          C82   1.284       .  A
O78         Cu80   2.043       .  S
O78          C81   1.283       .  A
Cu79        Cu80   2.367       .  S
C81         C963   1.480       .  S
C82         C913   1.489       .  S
C83         C920   1.487       .  S
C84         C900   1.484       .  S
O85         Cu93   1.975   1_655  S
O85          C95   1.272   1_655  A
O86         Cu93   1.971       .  S
O86          C96   1.272       .  A
O87         Cu93   2.030   1_554  S
O87          C97   1.282       .  A
O88         Cu93   2.032       .  S
O88          C98   1.282       .  A
O89         Cu94   1.983       .  S
O89          C98   1.273       .  A
O90         Cu94   1.981   1_554  S
O90          C97   1.273       .  A
O91         Cu94   2.034       .  S
O91          C96   1.283       .  A
O92         Cu94   2.044       .  S
O92          C95   1.284       .  A
Cu93        Cu94   2.367       .  S
C95         C883   1.488       .  S
C96         C890   1.485       .  S
C97         C870   1.483       .  S
C98         C953   1.481       .  S
O99        Cu107   1.975       .  S
O99         C109   1.272       .  A
O100       Cu107   1.970       .  S
O100        C110   1.272       .  A
O101       Cu107   2.024   1_554  S
O101        C111   1.282       .  A
O102       Cu107   2.026       .  S
O102        C112   1.281       .  A
O103       Cu108   1.986       .  S
O103        C112   1.274       .  A
O104       Cu108   1.982   1_554  S
O104        C111   1.273       .  A
O105       Cu108   2.033       .  S
O105        C110   1.283       .  A
O106       Cu108   2.040       .  S
O106        C109   1.283       .  A
Cu107      Cu108   2.366       .  S
C109        C860   1.488       .  S
C110        C893   1.485       .  S
C111        C850   1.485       .  S
C112        C923   1.483       .  S
O113       Cu121   2.036       .  S
O113        C123   1.283       .  A
O114       Cu121   2.041       .  S
O114        C124   1.283       .  A
O115       Cu121   1.977       .  S
O115        C125   1.272       .  A
O116       Cu121   1.972       .  S
O116        C126   1.272       .  A
O117       Cu122   2.029       .  S
O117        C126   1.282       .  A
O118       Cu122   2.032       .  S
O118        C125   1.282       .  A
O119       Cu122   1.989       .  S
O119        C124   1.274       .  A
O120       Cu122   1.984       .  S
O120        C123   1.273       .  A
Cu121      Cu122   2.365       .  S
C123        C843   1.487       .  S
C124        C820   1.494       .  S
C125        C830   1.487       .  S
C126        C810   1.481       .  S
O127       Cu135   2.037       .  S
O127        C137   1.283       .  A
O128       Cu135   2.038       .  S
O128        C138   1.283       .  A
O129       Cu135   1.976       .  S
O129        C139   1.273       .  A
O130       Cu135   1.979       .  S
O130        C140   1.273       .  A
O131       Cu136   2.026       .  S
O131        C140   1.282       .  A
O132       Cu136   2.024       .  S
O132        C139   1.281       .  A
O133       Cu136   1.982       .  S
O133        C138   1.273       .  A
O134       Cu136   1.984       .  S
O134        C137   1.273       .  A
Cu135      Cu136   2.365       .  S
C137       C1063   1.491       .  S
C138        C840   1.491       .  S
C139        C793   1.480       .  S
C140        C803   1.486       .  S
O141       Cu149   2.036       .  S
O141        C151   1.283       .  A
O142       Cu149   2.041       .  S
O142        C152   1.284       .  A
O143       Cu149   1.978       .  S
O143        C153   1.272       .  A
O144       Cu149   1.972       .  S
O144        C154   1.272       .  A
O145       Cu150   2.028       .  S
O145        C154   1.282       .  A
O146       Cu150   2.029       .  S
O146        C153   1.282       .  A
O147       Cu150   1.982       .  S
O147        C152   1.273       .  A
O148       Cu150   1.980       .  S
O148        C151   1.273       .  A
Cu149      Cu150   2.367       .  S
C151        C783   1.487       .  S
C152        C773   1.491       .  S
C153        C800   1.481       .  S
C154        C760   1.481       .  S
O155       Cu163   2.041       .  S
O155        C165   1.284       .  A
O156       Cu163   2.048       .  S
O156        C166   1.285       .  A
O157       Cu163   1.981       .  S
O157        C167   1.273       .  A
O158       Cu163   1.983       .  S
O158        C168   1.273       .  A
O159       Cu164   2.026       .  S
O159        C168   1.282       .  A
O160       Cu164   2.028       .  S
O160        C167   1.282       .  A
O161       Cu164   1.975       .  S
O161        C166   1.272       .  A
O162       Cu164   1.970       .  S
O162        C165   1.272       .  A
Cu163      Cu164   2.368       .  S
C165        C780   1.489       .  S
C166        C910   1.487       .  S
C167        C833   1.481       .  S
C168        C753   1.480       .  S
O169       Cu177   2.028       .  S
O169        C179   1.282       .  A
O170       Cu177   2.033       .  S
O170        C180   1.282       .  A
O171       Cu177   1.973   1_554  S
O171        C181   1.272       .  A
O172       Cu177   1.971       .  S
O172        C182   1.272       .  A
O173       Cu178   2.041       .  S
O173        C182   1.284       .  A
O174       Cu178   2.046   1_554  S
O174        C181   1.284       .  A
O175       Cu178   1.991       .  S
O175        C180   1.274       .  A
O176       Cu178   1.984       .  S
O176        C179   1.273       .  A
Cu177      Cu178   2.366       .  S
C179        C740   1.485       .  S
C180        C880   1.487       .  S
C181        C733   1.492       .  S
C182        C723   1.483       .  S
O183       Cu191   2.030   1_556  S
O183        C193   1.282       .  A
O184       Cu191   2.031       .  S
O184        C194   1.282       .  A
O185       Cu191   1.981       .  S
O185        C195   1.273       .  A
O186       Cu191   1.978       .  S
O186        C196   1.273   1_554  A
O187       Cu192   2.030       .  S
O187        C196   1.282       .  A
O188       Cu192   2.030       .  S
O188        C195   1.282   1_556  A
O189       Cu192   1.986   1_554  S
O189        C194   1.274       .  A
O190       Cu192   1.979       .  S
O190        C193   1.273       .  A
Cu191      Cu192   2.366   1_554  S
C193        C693   1.485       .  S
C194        C710   1.489       .  S
C195        C700   1.483       .  S
C196        C743   1.488       .  S
O197       Cu205   2.041       .  S
O197        C207   1.284       .  A
O198       Cu205   2.042       .  S
O198        C208   1.284       .  A
O199       Cu205   1.984       .  S
O199        C209   1.273       .  A
O200       Cu205   1.976       .  S
O200        C210   1.272       .  A
O201       Cu206   2.042       .  S
O201        C210   1.284       .  A
O202       Cu206   2.051       .  S
O202        C209   1.285       .  A
O203       Cu206   1.978       .  S
O203        C208   1.272       .  A
O204       Cu206   1.971       .  S
O204        C207   1.271       .  A
Cu205      Cu206   2.365       .  S
C207        C663   1.486       .  S
C208        C730   1.483       .  S
C209        C673   1.495       .  S
C210        C683   1.491       .  S
O211       Cu219   2.027       .  S
O211        C221   1.281       .  A
O212       Cu219   2.023       .  S
O212        C222   1.281       .  A
O213       Cu219   1.984       .  S
O213        C223   1.273       .  A
O214       Cu219   1.985       .  S
O214        C224   1.274       .  A
O215       Cu220   2.043       .  S
O215        C224   1.283       .  A
O216       Cu220   2.036       .  S
O216        C223   1.283       .  A
O217       Cu220   1.990       .  S
O217        C222   1.274       .  A
O218       Cu220   1.992       .  S
O218        C221   1.275       .  A
Cu219      Cu220   2.367       .  S
C221        C713   1.487       .  S
C222        C650   1.482       .  S
C223        C680   1.486       .  S
C224        C983   1.489       .  S
O225       Cu233   1.989       .  S
O225        C235   1.274       .  A
O226      Cu1321   1.966       .  S
O226        C236   1.271       .  A
O227       Cu233   2.031       .  S
O227       C2413   1.282       .  A
O228      Cu1321   2.032       .  S
O228        C238   1.282       .  A
O229       Cu234   1.978       .  S
O229        C238   1.273       .  A
O230       Cu234   1.973       .  S
O230        C237   1.272       .  A
O231       Cu234   2.030       .  S
O231        C236   1.283       .  A
O232       Cu234   2.040       .  S
O232       C1323   1.283       .  A
Cu233      O2402   1.987       .  S
Cu233      O2404   2.033       .  S
Cu233     Cu2410   2.366   1_455  S
Cu234     Cu1321   2.367       .  S
C235       O2408   1.283   1_455  A
C235        C770   1.491       .  S
C236        C643   1.480       .  S
C237       O1315   1.283       .  A
C237       C2138   1.482       .  S
C238        C630   1.483       .  S
O239       Cu247   1.988       .  S
O239        C249   1.274       .  A
O240       Cu247   1.993       .  S
O240        C250   1.275       .  A
O241       Cu247   2.044       .  S
O241        C251   1.284       .  A
O242       Cu247   2.033       .  S
O242        C252   1.283       .  A
O243       Cu248   1.968       .  S
O243        C252   1.271       .  A
O244       Cu248   1.975       .  S
O244        C251   1.273       .  A
O245       Cu248   2.028       .  S
O245        C250   1.282       .  A
O246       Cu248   2.027       .  S
O246        C249   1.282       .  A
Cu247      Cu248   2.365       .  S
C249       C1023   1.483       .  S
C250        C620   1.491       .  S
C251        C610   1.492       .  S
C252        C640   1.485       .  S
O253       Cu261   1.972   1_556  S
O253        C263   1.272       .  A
O254       Cu261   1.973       .  S
O254        C264   1.272       .  A
O255       Cu261   2.029       .  S
O255        C265   1.282       .  A
O256       Cu261   2.033       .  S
O256        C266   1.283   1_554  A
O257       Cu262   1.986       .  S
O257        C266   1.273       .  A
O258       Cu262   1.976       .  S
O258        C265   1.273   1_556  A
O259       Cu262   2.032   1_554  S
O259        C264   1.283       .  A
O260       Cu262   2.036       .  S
O260        C263   1.283       .  A
Cu261      Cu262   2.367   1_554  S
C263        C633   1.486       .  S
C264        C993   1.486       .  S
C265        C603   1.476       .  S
C266        C590   1.490       .  S
O267       Cu275   1.973       .  S
O267        C277   1.272   1_556  A
O268      Cu1363   1.981       .  S
O268        C278   1.273   1_556  A
O269       Cu275   2.031   1_554  S
O269       C2455   1.282       .  A
O270      Cu1363   2.032       .  S
O270        C280   1.282       .  A
O271       Cu276   1.986   1_556  S
O271        C280   1.274       .  A
O272       Cu276   1.982       .  S
O272        C279   1.273       .  A
O273       Cu276   2.029       .  S
O273        C278   1.282       .  A
O274       Cu276   2.038       .  S
O274       C1365   1.283   1_554  A
Cu275      O2444   1.974       .  S
Cu275      O2446   2.031       .  S
Cu275     Cu2452   2.368   1_456  S
Cu276     Cu1363   2.367   1_554  S
C277       O2450   1.283   1_455  A
C277        C703   1.484       .  S
C278        C600   1.485       .  S
C279       O1357   1.282       .  A
C279       C2058   1.480       .  S
C280        C623   1.484       .  S
O281      Cu1377   2.048       .  S
O281        C291   1.285       .  A
O282       Cu289   2.037       .  S
O282        C292   1.283       .  A
O283      Cu1377   1.973       .  S
O283        C293   1.271       .  A
O284       Cu289   1.983       .  S
O284       C2470   1.273       .  A
O285       Cu290   2.041       .  S
O285        C294   1.284       .  A
O286       Cu290   2.039       .  S
O286        C293   1.284       .  A
O287       Cu290   1.975       .  S
O287       C1380   1.272       .  A
O288       Cu290   1.984       .  S
O288        C291   1.272       .  A
Cu289      O2457   2.039       .  S
Cu289      O2459   1.970       .  S
Cu289     Cu2466   2.363   1_455  S
Cu290     Cu1377   2.364       .  S
C291        C943   1.491       .  S
C292       O2463   1.273   1_455  A
C292        C580   1.491       .  S
C293        C720   1.488       .  S
C294       O1372   1.272       .  A
C294       C1658   1.489       .  S
O295       Cu303   2.036       .  S
O295        C305   1.284       .  A
O296       Cu303   2.032       .  S
O296        C306   1.282       .  A
O297       Cu303   1.979       .  S
O297        C307   1.273       .  A
O298       Cu303   1.983       .  S
O298        C308   1.273       .  A
O299       Cu304   2.036       .  S
O299        C308   1.282       .  A
O300       Cu304   2.029       .  S
O300        C307   1.282       .  A
O301       Cu304   1.988       .  S
O301        C306   1.274       .  A
O302       Cu304   1.988       .  S
O302        C305   1.273       .  A
Cu303      Cu304   2.368       .  S
C305        C613   1.491       .  S
C306        C583   1.485       .  S
C307        C690   1.483       .  S
C308        C563   1.478       .  S
O309       Cu317   2.047       .  S
O309        C319   1.285       .  A
O310       Cu317   2.042       .  S
O310        C320   1.284       .  A
O311       Cu317   1.977       .  S
O311        C321   1.272       .  A
O312       Cu317   1.986       .  S
O312        C322   1.273       .  A
O313       Cu318   2.045       .  S
O313        C322   1.284       .  A
O314       Cu318   2.035       .  S
O314        C321   1.284       .  A
O315       Cu318   1.970       .  S
O315        C320   1.271       .  A
O316       Cu318   1.978       .  S
O316        C319   1.272       .  A
Cu317      Cu318   2.365       .  S
C319        C573   1.488       .  S
C320        C660   1.487       .  S
C321        C550   1.487       .  S
C322        C540   1.493       .  S
O323       Cu331   2.030       .  S
O323        C333   1.282       .  A
O324       Cu331   2.028       .  S
O324       C1422   1.282       .  A
O325       Cu331   1.975       .  S
O325        C335   1.272       .  A
O326       Cu331   1.977       .  S
O326       C1424   1.273       .  A
O327       Cu332   2.040       .  S
O327        C336   1.283       .  A
O328      Cu1420   2.034       .  S
O328        C335   1.283       .  A
O329       Cu332   1.993       .  S
O329        C334   1.275       .  A
O330      Cu1420   1.977       .  S
O330        C333   1.273       .  A
Cu331     Cu1420   2.366       .  S
Cu332      O2504   2.044       .  S
Cu332      O2506   1.984       .  S
Cu332     Cu2507   2.364   1_455  S
C333        C653   1.487       .  S
C334       O2500   1.282   1_455  A
C334        C560   1.491       .  S
C335       C1030   1.487       .  S
C336       O2502   1.271   1_455  A
C336        C553   1.487       .  S
O337       Cu345   1.985       .  S
O337        C347   1.273       .  A
O338       Cu345   1.980       .  S
O338        C348   1.273       .  A
O339       Cu345   2.039       .  S
O339        C349   1.283       .  A
O340       Cu345   2.042       .  S
O340        C350   1.284       .  A
O341       Cu346   1.992       .  S
O341        C350   1.274       .  A
O342       Cu346   1.986       .  S
O342        C349   1.274       .  A
O343       Cu346   2.032       .  S
O343        C348   1.282       .  A
O344       Cu346   2.034       .  S
O344        C347   1.283       .  A
Cu345      Cu346   2.365       .  S
C347        C523   1.489       .  S
C348        C933   1.484       .  S
C349        C530   1.492       .  S
C350        C543   1.494       .  S
O351       Cu359   1.983       .  S
O351       C2537   1.273   1_455  A
O352       Cu359   1.988       .  S
O352        C362   1.274       .  A
O353       Cu359   2.040       .  S
O353       C2539   1.284   1_455  A
O354       Cu359   2.036       .  S
O354        C364   1.283       .  A
O355       Cu360   1.979       .  S
O355       C1452   1.273       .  A
O356       Cu360   1.986       .  S
O356        C363   1.274       .  A
O357      Cu2536   2.039       .  S
O357        C362   1.284   1_655  A
O358       Cu360   2.039       .  S
O358        C361   1.283       .  A
Cu359     Cu2536   2.365   1_455  S
Cu360      O1445   2.044       .  S
Cu360     Cu1447   2.365       .  S
C361       O1439   1.274       .  A
C361        C533   1.492       .  S
C362        C823   1.493       .  S
C363       O1441   1.282       .  A
C363        C510   1.486       .  S
C364       O2531   1.272   1_455  A
C364        C903   1.486       .  S
O365       Cu373   1.974       .  S
O365       C2551   1.272   1_455  A
O366       Cu373   1.986       .  S
O366        C376   1.273       .  A
O367       Cu373   2.027       .  S
O367       C2553   1.282   1_455  A
O368       Cu373   2.028       .  S
O368        C378   1.281       .  A
O369       Cu374   1.980       .  S
O369       C1466   1.273       .  A
O370       Cu374   1.983       .  S
O370        C377   1.273       .  A
O371       Cu374   2.040       .  S
O371       C1464   1.283       .  A
O372       Cu374   2.036       .  S
O372        C375   1.283       .  A
Cu373     Cu2550   2.365   1_455  S
Cu374     Cu1461   2.364       .  S
C375       O1453   1.273       .  A
C375        C500   1.489       .  S
C376       O2547   1.285   1_455  A
C376        C670   1.495       .  S
C377       O1455   1.283       .  A
C377        C520   1.488       .  S
C378       O2545   1.274   1_455  A
C378        C873   1.487       .  S
O379       Cu387   1.980       .  S
O379        C389   1.273       .  A
O380       Cu387   1.983       .  S
O380        C390   1.273       .  A
O381       Cu387   2.033       .  S
O381        C391   1.283       .  A
O382       Cu387   2.031       .  S
O382        C392   1.282       .  A
O383       Cu388   1.980       .  S
O383        C392   1.273       .  A
O384       Cu388   1.986       .  S
O384        C391   1.273       .  A
O385       Cu388   2.041       .  S
O385        C390   1.283       .  A
O386       Cu388   2.037       .  S
O386        C389   1.283       .  A
Cu387      Cu388   2.364       .  S
C389        C503   1.489       .  S
C390        C490   1.492       .  S
C391        C513   1.491       .  S
C392        C853   1.484       .  S
O393       Cu401   2.029       .  S
O393        C403   1.282       .  A
O394       Cu401   2.035   1_554  S
O394        C404   1.283       .  A
O395       Cu401   1.978       .  S
O395        C405   1.273       .  A
O396       Cu401   1.979       .  S
O396        C406   1.273       .  A
O397       Cu402   2.038       .  S
O397        C406   1.283       .  A
O398       Cu402   2.040       .  S
O398        C405   1.283       .  A
O399       Cu402   1.986   1_554  S
O399        C404   1.274       .  A
O400       Cu402   1.980       .  S
O400        C403   1.273       .  A
Cu401      Cu402   2.365       .  S
C403        C763   1.485       .  S
C404        C470   1.488       .  S
C405        C593   1.490       .  S
C406        C483   1.486       .  S
O407       Cu415   2.043       .  S
O407        C417   1.284   1_455  A
O408       Cu415   2.039       .  S
O408        C418   1.283       .  A
O409       Cu415   1.979       .  S
O409        C419   1.273   1_455  A
O410       Cu415   1.988   1_554  S
O410        C420   1.274       .  A
O411       Cu416   2.035   1_554  S
O411        C420   1.283   1_655  A
O412       Cu416   2.033       .  S
O412        C419   1.282       .  A
O413       Cu416   1.977       .  S
O413        C418   1.272   1_655  A
O414       Cu416   1.977       .  S
O414        C417   1.272       .  A
Cu415      Cu416   2.364   1_455  S
C417       C3039   1.492       .  S
C418        C480   1.490       .  S
C419        C750   1.489       .  S
C420        C460   1.485       .  S
O421       Cu429   2.040       .  S
O421        C431   1.283       .  A
O422       Cu429   2.039       .  S
O422       C2608   1.283   1_455  A
O423       Cu429   1.989       .  S
O423        C433   1.274       .  A
O424       Cu429   1.984       .  S
O424        C434   1.274   1_455  A
O425       Cu430   2.031       .  S
O425       C1522   1.283       .  A
O426      Cu2606   2.034       .  S
O426        C433   1.283   1_655  A
O427       Cu430   1.980       .  S
O427        C432   1.272       .  A
O428      Cu2606   1.979       .  S
O428        C431   1.273   1_655  A
Cu429     Cu2606   2.365   1_455  S
Cu430      O1514   2.036       .  S
Cu430      O1516   1.975       .  S
Cu430     Cu1517   2.364       .  S
C431        C453   1.488       .  S
C432       O1510   1.285       .  A
C432       C1003   1.494       .  S
C433        C473   1.490       .  S
C434       O2601   1.283       .  A
C434       C2966   1.490       .  S
O435       Cu443   2.033       .  S
O435        C445   1.283       .  A
O436       Cu443   2.041       .  S
O436        C446   1.284       .  A
O437       Cu443   1.985       .  S
O437        C447   1.273       .  A
O438       Cu443   1.980       .  S
O438        C448   1.273       .  A
O439       Cu444   2.038       .  S
O439        C448   1.283       .  A
O440       Cu444   2.041       .  S
O440        C447   1.284       .  A
O441       Cu444   1.976       .  S
O441        C446   1.272       .  A
O442       Cu444   1.974       .  S
O442        C445   1.272       .  A
Cu443      Cu444   2.366       .  S
C445        C813   1.485       .  S
C446        C463   1.491       .  S
C447        C493   1.492       .  S
C448        C450   1.480       .  S
C449        C450   1.402   1_655  A
C449        C454   1.399       .  A
C449        F456   1.358       .  S
C450        C451   1.411       .  A
C451        C452   1.400       .  A
C451        F458   1.358       .  S
C452        C453   1.407       .  A
C452        F457   1.358       .  S
C453        C454   1.415   1_455  A
C454        F455   1.358       .  S
C459        C460   1.403   1_655  A
C459        C464   1.398       .  A
C459        F466   1.358       .  S
C460        C461   1.412       .  A
C461        C462   1.401       .  A
C461        F468   1.358       .  S
C462        C463   1.406       .  A
C462        F467   1.357       .  S
C463        C464   1.416   1_455  A
C464        F465   1.358       .  S
C469        C470   1.413   1_655  A
C469        C474   1.399       .  A
C469        F476   1.358       .  S
C470        C471   1.406       .  A
C471        C472   1.401       .  A
C471        F478   1.358       .  S
C472        C473   1.415       .  A
C472        F477   1.358       .  S
C473        C474   1.406   1_455  A
C474        F475   1.357       .  S
C479        C480   1.406       .  A
C479        C484   1.399       .  A
C479        F486   1.358       .  S
C480        C481   1.416   1_455  A
C481        C482   1.399       .  A
C481        F488   1.358       .  S
C482        C483   1.404   1_655  A
C482        F487   1.358       .  S
C483        C484   1.413       .  A
C484        F485   1.358       .  S
C489        C490   1.415       .  A
C489        C494   1.400       .  A
C489        F496   1.358       .  S
C490        C491   1.406       .  A
C491        C492   1.401       .  A
C491        F498   1.358       .  S
C492        C493   1.415       .  A
C492        F497   1.358       .  S
C493        C494   1.406       .  A
C494        F495   1.357       .  S
C499        C500   1.414       .  A
C499        C504   1.399       .  A
C499       F1594   1.358       .  S
C500        C501   1.406       .  A
C501        C502   1.399       .  A
C501        F508   1.358       .  S
C502        C503   1.415       .  A
C502        F507   1.358       .  S
C503        C504   1.406       .  A
C504       F1593   1.358       .  S
F505       C2680   1.358   1_455  S
F506       C2675   1.358   1_455  S
C509       C2686   1.403   1_455  A
C509       C2690   1.399   1_455  A
C509        F516   1.358       .  S
C510        C511   1.411       .  A
C510       C1597   1.404       .  A
C511        C512   1.398       .  A
C511        F518   1.358       .  S
C512        C513   1.407       .  A
C512        F517   1.358       .  S
C513        C514   1.416       .  A
C514       C1597   1.401       .  A
C514       F1603   1.358       .  S
F515       C2690   1.358   1_455  S
C519        C520   1.406       .  A
C519        C524   1.400       .  A
C519       F1614   1.358       .  S
C520        C521   1.414       .  A
C521        C522   1.398       .  A
C521        F528   1.358       .  S
C522        C523   1.405       .  A
C522        F527   1.358       .  S
C523        C524   1.415       .  A
C524       F1613   1.358       .  S
F525       C2700   1.358   1_455  S
F526       C2695   1.358   1_455  S
C529        C530   1.406       .  A
C529        C534   1.401       .  A
C529       F1624   1.358       .  S
C530        C531   1.415       .  A
C531        C532   1.400       .  A
C531        F538   1.358       .  S
C532        C533   1.406       .  A
C532        F537   1.358       .  S
C533        C534   1.414       .  A
C534       F1623   1.357       .  S
F535       C2710   1.358       .  S
F536       C2705   1.358   1_455  S
C539        C540   1.415       .  A
C539        C544   1.401       .  A
C539        F546   1.358       .  S
C540        C541   1.406       .  A
C541        C542   1.402       .  A
C541        F548   1.358       .  S
C542        C543   1.415       .  A
C542        F547   1.358       .  S
C543        C544   1.406       .  A
C544        F545   1.357       .  S
C549        C554   1.398       .  A
C549       C1638   1.402       .  A
C549        F556   1.358       .  S
C550        C551   1.415       .  A
C550       C2725   1.404       .  A
C551        C552   1.400       .  A
C551        F558   1.358       .  S
C552        C553   1.405       .  A
C552        F557   1.358       .  S
C553       C2730   1.415   1_455  A
C554       C1641   1.415       .  A
C554        F555   1.358       .  S
C559        C564   1.398       .  A
C559       C1648   1.402       .  A
C559        F566   1.358       .  S
C560        C561   1.416       .  A
C560       C2735   1.409   1_455  A
C561        C562   1.401       .  A
C561        F568   1.358       .  S
C562        C563   1.402       .  A
C562        F567   1.358       .  S
C563       C2740   1.408       .  A
C564       C1651   1.415       .  A
C564        F565   1.358       .  S
C569        C570   1.417       .  A
C569        C574   1.401       .  A
C569        F576   1.358       .  S
C570       C2470   1.493       .  S
C570       C2747   1.407   1_455  A
C571        C572   1.401       .  A
C571       C1658   1.405       .  A
C571        F578   1.357       .  S
C572       C1661   1.414       .  A
C572        F577   1.358       .  S
C573        C574   1.402       .  A
C573       C2748   1.414   1_455  A
C574        F575   1.357       .  S
C579        C584   1.398       .  A
C579       C1668   1.417       .  A
C579        F586   1.358       .  S
C580        C581   1.408       .  A
C580       C2755   1.416   1_455  A
C581        C582   1.400       .  A
C581        F588   1.358       .  S
C582        C583   1.411       .  A
C582        F587   1.358       .  S
C583       C2760   1.404   1_455  A
C584       C1671   1.402       .  A
C584        F585   1.358       .  S
C589        C590   1.405   1_554  A
C589        C594   1.398   1_565  A
C589        F596   1.358       .  S
C590        C591   1.415       .  A
C591        C592   1.401   1_565  A
C591        F598   1.358       .  S
C592        C593   1.406       .  A
C592        F597   1.358       .  S
C593        C594   1.415   1_556  A
C594        F595   1.358       .  S
C599        C600   1.415   1_556  A
C599        C604   1.398       .  A
C599        F606   1.358       .  S
C600        C601   1.407       .  A
C601        C602   1.397       .  A
C601        F608   1.358       .  S
C602        C603   1.409       .  A
C602        F607   1.359       .  S
C603        C604   1.402   1_554  A
C604        F605   1.358       .  S
C609        C610   1.407       .  A
C609        C614   1.403       .  A
C609        F616   1.358       .  S
C610        C611   1.414       .  A
C611        C612   1.397       .  A
C611        F618   1.358       .  S
C612        C613   1.405       .  A
C612        F617   1.357       .  S
C613        C614   1.415       .  A
C614        F615   1.358       .  S
C619        C620   1.408       .  A
C619        C624   1.398       .  A
C619        F626   1.358       .  S
C620        C621   1.415       .  A
C621        C622   1.400       .  A
C621        F628   1.358       .  S
C622        C623   1.404       .  A
C622        F627   1.358       .  S
C623        C624   1.411       .  A
C624        F625   1.358       .  S
C629        C630   1.413       .  A
C629        C634   1.398       .  A
C629        F636   1.358       .  S
C630        C631   1.403       .  A
C631        C632   1.397       .  A
C631       F1726   1.358       .  S
C632        C633   1.415       .  A
C632       F1725   1.358       .  S
C633        C634   1.405       .  A
C634        F635   1.357       .  S
F637       C2808   1.358       .  S
F638       C2807   1.357       .  S
C639        C640   1.405       .  A
C639        C644   1.396       .  A
C639        F646   1.358       .  S
C640        C641   1.415       .  A
C641        C642   1.396       .  A
C641        F648   1.358       .  S
C642        C643   1.402       .  A
C642        F647   1.358       .  S
C643        C644   1.413       .  A
C644       F1733   1.359       .  S
F645       C2820   1.358       .  S
C649        C650   1.404       .  A
C649        C654   1.396       .  A
C649        F656   1.358       .  S
C650        C651   1.411       .  A
C651        C652   1.400       .  A
C651        F658   1.357       .  S
C652        C653   1.407       .  A
C652        F657   1.358       .  S
C653        C654   1.414       .  A
C654       F1743   1.358       .  S
F655       C2830   1.357       .  S
C659        C660   1.404       .  A
C659        C664   1.398       .  A
C659        F666   1.358       .  S
C660        C661   1.416       .  A
C661        C662   1.399       .  A
C661        F668   1.358       .  S
C662        C663   1.403       .  A
C662        F667   1.358       .  S
C663        C664   1.415       .  A
C664        F665   1.358       .  S
C669        C670   1.406       .  A
C669        C674   1.401       .  A
C669        F676   1.358   1_455  S
C670        C671   1.416       .  A
C671        C672   1.403       .  A
C671        F678   1.358       .  S
C672        C673   1.406       .  A
C672        F677   1.358       .  S
C673        C674   1.416       .  A
C674        F675   1.358       .  S
C679        C680   1.404       .  A
C679        C684   1.399       .  A
C679        F686   1.358       .  S
C680        C681   1.412       .  A
C681        C682   1.400       .  A
C681        F688   1.358       .  S
C682        C683   1.406       .  A
C682        F687   1.358       .  S
C683        C684   1.416       .  A
C684        F685   1.358       .  S
C689        C690   1.404       .  A
C689        C694   1.397       .  A
C689        F696   1.358       .  S
C690        C691   1.413       .  A
C691        C692   1.398       .  A
C691        F698   1.358       .  S
C692        C693   1.406       .  A
C692        F697   1.358       .  S
C693        C694   1.414       .  A
C694        F695   1.358       .  S
C699        C700   1.404   1_556  A
C699        C704   1.396       .  A
C699        F706   1.358       .  S
C700        C701   1.413       .  A
C701        C702   1.400       .  A
C701        F708   1.358       .  S
C702        C703   1.405       .  A
C702       F2883   1.358   1_455  S
C703        C704   1.413   1_554  A
C704        F705   1.358       .  S
F707       C1790   1.358       .  S
C709        C710   1.414       .  A
C709        C714   1.399       .  A
C709        F716   1.358       .  S
C710        C711   1.406       .  A
C711        C712   1.399       .  A
C711        F718   1.357       .  S
C712        C713   1.412       .  A
C712        F717   1.358       .  S
C713        C714   1.406       .  A
C714        F715   1.358       .  S
C719        C720   1.417       .  A
C719        C724   1.399       .  A
C719       F1814   1.357       .  S
C720        C721   1.405       .  A
C721        C722   1.397       .  A
C721        F728   1.358       .  S
C722        C723   1.413       .  A
C722        F727   1.358       .  S
C723        C724   1.403       .  A
C724        F725   1.358       .  S
F726       C2895   1.358       .  S
C729        C730   1.413       .  A
C729        C734   1.400       .  A
C729        F736   1.358       .  S
C730        C731   1.401       .  A
C731        C732   1.399       .  A
C731        F738   1.358       .  S
C732        C733   1.418       .  A
C732        F737   1.358       .  S
C733        C734   1.407       .  A
C734        F735   1.358       .  S
C739        C740   1.405       .  A
C739        C744   1.397       .  A
C739        F746   1.358       .  S
C740        C741   1.413       .  A
C741        C742   1.399       .  A
C741        F748   1.358       .  S
C742        C743   1.407       .  A
C742        F747   1.358       .  S
C743        C744   1.414       .  A
C744        F745   1.358   1_556  S
C749        C750   1.415   1_455  A
C749       C2930   1.397   1_455  A
C749        F756   1.358       .  S
C750       C2927   1.408       .  A
C751        C752   1.400       .  A
C751       C1838   1.408       .  A
C751        F758   1.358       .  S
C752        C753   1.411       .  A
C752        F757   1.358       .  S
C753        C754   1.402       .  A
C754       C1837   1.396       .  A
C754       F1843   1.358       .  S
F755       C2930   1.358   1_455  S
C759        C760   1.403       .  A
C759        C764   1.397       .  A
C759        F766   1.358       .  S
C760        C761   1.412       .  A
C761        C762   1.397       .  A
C761        F768   1.358       .  S
C762        C763   1.406       .  A
C762        F767   1.358       .  S
C763        C764   1.414       .  A
C764        F765   1.357       .  S
C769        C770   1.407       .  A
C769        C774   1.400   1_565  A
C769        F776   1.358   1_455  S
C770        C771   1.414       .  A
C771        C772   1.400   1_565  A
C771        F778   1.358       .  S
C772        C773   1.406       .  A
C772        F777   1.358       .  S
C773        C774   1.415       .  A
C774        F775   1.358       .  S
C779        C780   1.416       .  A
C779        C784   1.397       .  A
C779        F786   1.358       .  S
C780        C781   1.406       .  A
C781        C782   1.400       .  A
C781        F788   1.358       .  S
C782        C783   1.415       .  A
C782        F787   1.358       .  S
C783        C784   1.404       .  A
C784        F785   1.358       .  S
C789        C790   1.405       .  A
C789        C794   1.396       .  A
C789        F796   1.358       .  S
C790       C1522   1.485       .  S
C790       C1879   1.415       .  A
C791       C2966   1.415   1_455  A
C791       C2968   1.398       .  A
C791        F798   1.358       .  S
C792        C793   1.404       .  A
C792       C1879   1.397       .  A
C792       F1885   1.358       .  S
C793        C794   1.412       .  A
C794        F795   1.358       .  S
F797       C2968   1.358       .  S
C799        C800   1.411       .  A
C799        C804   1.397       .  A
C799        F806   1.358       .  S
C800        C801   1.402       .  A
C801        C802   1.397       .  A
C801        F808   1.357       .  S
C802        C803   1.415       .  A
C802        F807   1.358       .  S
C803        C804   1.407       .  A
C804        F805   1.358       .  S
C809        C810   1.403       .  A
C809        C814   1.397       .  A
C809        F816   1.358       .  S
C810        C811   1.412       .  A
C811        C812   1.397       .  A
C811        F818   1.358       .  S
C812        C813   1.405       .  A
C812        F817   1.358       .  S
C813        C814   1.415       .  A
C814        F815   1.358       .  S
C819        C820   1.415       .  A
C819        C824   1.400       .  A
C819        F826   1.358       .  S
C820        C821   1.407       .  A
C821        C822   1.402       .  A
C821        F828   1.358       .  S
C822        C823   1.415       .  A
C822        F827   1.358       .  S
C823        C824   1.406       .  A
C824        F825   1.358   1_455  S
C829        C830   1.406       .  A
C829        C834   1.398       .  A
C829        F836   1.358       .  S
C830        C831   1.416       .  A
C831        C832   1.398       .  A
C831        F838   1.358       .  S
C832        C833   1.403       .  A
C832        F837   1.358       .  S
C833        C834   1.411       .  A
C834        F835   1.358       .  S
C839        C840   1.408       .  A
C839        C844   1.401       .  A
C839        F846   1.358       .  S
C840        C841   1.415       .  A
C841        C842   1.398       .  A
C841        F848   1.358       .  S
C842        C843   1.404       .  A
C842        F847   1.358       .  S
C843        C844   1.413       .  A
C844        F845   1.358       .  S
C849        C850   1.414       .  A
C849        C854   1.399       .  A
C849        F856   1.358       .  S
C850        C851   1.405       .  A
C851        C852   1.396       .  A
C851        F858   1.358       .  S
C852        C853   1.412       .  A
C852        F857   1.358       .  S
C853        C854   1.405       .  A
C854        F855   1.358       .  S
C859        C860   1.413       .  A
C859        C864   1.397       .  A
C859        F866   1.358       .  S
C860        C861   1.406   1_556  A
C861        C862   1.401       .  A
C861        F868   1.358       .  S
C862        C863   1.414   1_554  A
C862        F867   1.358       .  S
C863       C1505   1.487       .  S
C863        C864   1.405       .  A
C864       F1953   1.358       .  S
F865       C3040   1.358   1_455  S
C869        C870   1.413       .  A
C869        C874   1.399       .  A
C869        F876   1.358       .  S
C870        C871   1.404   1_455  A
C871       C3048   1.396       .  A
C871       F3054   1.358       .  S
C872       C1959   1.398       .  A
C872       C1961   1.416       .  A
C872        F877   1.358       .  S
C873        C874   1.407       .  A
C873       C3048   1.414   1_455  A
C874        F875   1.358       .  S
F878       C1959   1.358       .  S
C879        C880   1.405       .  A
C879        C884   1.400       .  A
C879        F886   1.358   1_556  S
C880        C881   1.413       .  A
C881       C1970   1.400       .  A
C881        F888   1.358       .  S
C882        C883   1.404       .  A
C882       C3057   1.400       .  A
C882        F887   1.358       .  S
C883       C3060   1.415   1_455  A
C884       C1971   1.412       .  A
C884        F885   1.358   1_556  S
C889        C890   1.415       .  A
C889        C894   1.397       .  A
C889        F896   1.358       .  S
C890        C891   1.404       .  A
C891        C892   1.397       .  A
C891        F898   1.358       .  S
C892        C893   1.415       .  A
C892        F897   1.358       .  S
C893        C894   1.405       .  A
C894        F895   1.358       .  S
C899        C900   1.413       .  A
C899        C904   1.399       .  A
C899        F906   1.358       .  S
C900        C901   1.404   1_455  A
C901        C902   1.397       .  A
C901       F3084   1.358       .  S
C902        C903   1.415   1_655  A
C902       F3083   1.358       .  S
C903        C904   1.405       .  A
C904        F905   1.358       .  S
F907       C1990   1.358       .  S
F908       C1989   1.358       .  S
C909        C914   1.400       .  A
C909       C3086   1.414   1_455  A
C909        F916   1.358       .  S
C910        C911   1.404       .  A
C910       C1997   1.414       .  A
C911        C912   1.400       .  A
C911        F918   1.357       .  S
C912       C2001   1.413       .  A
C912        F917   1.358       .  S
C913        C914   1.404       .  A
C913       C3088   1.414   1_455  A
C914        F915   1.357       .  S
C919        C920   1.406       .  A
C919        C924   1.398       .  A
C919        F926   1.357       .  S
C920        C921   1.415       .  A
C921        C922   1.398       .  A
C921        F928   1.358       .  S
C922        C923   1.404       .  A
C922        F927   1.358       .  S
C923        C924   1.411       .  A
C924        F925   1.358       .  S
C929        C930   1.415       .  A
C929        C934   1.399       .  A
C929        F936   1.358       .  S
C930        C931   1.405       .  A
C931        C932   1.398       .  A
C931        F938   1.357       .  S
C932        C933   1.412       .  A
C932        F937   1.358       .  S
C933        C934   1.404       .  A
C934        F935   1.358       .  S
C939        C940   1.414       .  A
C939        C944   1.400       .  A
C939        F946   1.358       .  S
C940        C941   1.406       .  A
C941        C942   1.404       .  A
C941        F948   1.358       .  S
C942        C943   1.415       .  A
C942        F947   1.358       .  S
C943        C944   1.404       .  A
C944        F945   1.358       .  S
C949        C950   1.416       .  A
C949        C954   1.398       .  A
C949        F956   1.358       .  S
C950        C951   1.407       .  A
C951        C952   1.399       .  A
C951        F958   1.357       .  S
C952        C953   1.411       .  A
C952        F957   1.358       .  S
C953        C954   1.402       .  A
C954        F955   1.358       .  S
C959        C960   1.406       .  A
C959        C964   1.400       .  A
C959        F966   1.358       .  S
C960        C961   1.416       .  A
C961        C962   1.402       .  A
C961        F968   1.358       .  S
C962        C963   1.403       .  A
C962        F967   1.358       .  S
C963        C964   1.409       .  A
C964        F965   1.358       .  S
C969       C2058   1.411       .  A
C969       C2062   1.399       .  A
C969        F976   1.358       .  S
C970       C2455   1.481       .  S
C970        C971   1.403       .  A
C970       C3145   1.411   1_455  A
C971        C972   1.398       .  A
C971        F978   1.358       .  S
C972        C973   1.416       .  A
C972        F977   1.358       .  S
C973        C974   1.407   1_455  A
C974       C3145   1.398       .  A
C974       F3151   1.358       .  S
F975       C2062   1.358       .  S
C979        C980   1.406       .  A
C979       C3160   1.401       .  A
C979        F986   1.358       .  S
C980       C3157   1.416   1_455  A
C981        C982   1.403       .  A
C981       C2068   1.414       .  A
C981        F988   1.358       .  S
C982        C983   1.406       .  A
C982        F987   1.358       .  S
C983        C984   1.413       .  A
C984       C2067   1.399       .  A
C984        F985   1.358       .  S
C989        C990   1.413       .  A
C989        C994   1.397       .  A
C989        F996   1.358       .  S
C990        C991   1.403       .  A
C991        C992   1.398       .  A
C991        F998   1.358       .  S
C992        C993   1.416       .  A
C992        F997   1.358       .  S
C993        C994   1.405       .  A
C994        F995   1.358       .  S
C999       C1000   1.416       .  A
C999       C1004   1.401   1_565  A
C999       F1006   1.358       .  S
C1000      C1001   1.405       .  A
C1001      C1002   1.401   1_565  A
C1001      F1008   1.358       .  S
C1002      C1003   1.416       .  A
C1002      F1007   1.358       .  S
C1003      C1004   1.406       .  A
C1004      F1005   1.358       .  S
C1009      C1010   1.403       .  A
C1009      C1014   1.397       .  A
C1009      F1016   1.358       .  S
C1010      C1011   1.414       .  A
C1011      C1012   1.399       .  A
C1011      F1018   1.358       .  S
C1012      C1013   1.406       .  A
C1012      F1017   1.358       .  S
C1013      C1014   1.416       .  A
C1014      F1015   1.358       .  S
C1019      C1020   1.407       .  A
C1019      C1024   1.400       .  A
C1019      F1026   1.358       .  S
C1020      C1021   1.416       .  A
C1021      C1022   1.398       .  A
C1021      F1028   1.358       .  S
C1022      C1023   1.403       .  A
C1022      F1027   1.358       .  S
C1023      C1024   1.411       .  A
C1024      F1025   1.358       .  S
C1029      C1030   1.414       .  A
C1029      C1034   1.397       .  A
C1029      F1036   1.358       .  S
C1030      C1031   1.406       .  A
C1031      C1032   1.399       .  A
C1031      F1038   1.358       .  S
C1032      C1033   1.415       .  A
C1032      F1037   1.358       .  S
C1033      C1034   1.405       .  A
C1034      F1035   1.358       .  S
C1039      C1040   1.402       .  A
C1039      C1044   1.398       .  A
C1039      F1046   1.357       .  S
C1040      C1041   1.412       .  A
C1041      C1042   1.399       .  A
C1041      F1048   1.358       .  S
C1042      C1043   1.407       .  A
C1042      F1047   1.358       .  S
C1043      C1044   1.416       .  A
C1044      F1045   1.358       .  S
C1049      C1050   1.402       .  A
C1049      C1054   1.397       .  A
C1049      F1056   1.358       .  S
C1050      C2413   1.481       .  S
C1050      C3227   1.412   1_455  A
C1051      C1052   1.399       .  A
C1051      C2138   1.414       .  A
C1051      F1058   1.358       .  S
C1052      C2141   1.405       .  A
C1052      F1057   1.357       .  S
C1053      C1054   1.416       .  A
C1053      C3228   1.406   1_455  A
C1054      F1055   1.358       .  S
C1059      C1064   1.400   1_565  A
C1059      C2148   1.414       .  A
C1059      F1066   1.358       .  S
C1060      C1061   1.403       .  A
C1060      C3235   1.415   1_455  A
C1061      C1062   1.397   1_565  A
C1061      F1068   1.355       .  S
C1062      C3239   1.415   1_455  A
C1062      F1067   1.358       .  S
C1063      C1064   1.405       .  A
C1063      C2150   1.414       .  A
C1064      F1065   1.355       .  S
C1069      C1070   1.415       .  A
C1069      C1074   1.400       .  A
C1069      F1076   1.358       .  S
C1070      C1071   1.403       .  A
C1071      C1072   1.398       .  A
C1071      F1078   1.358       .  S
C1072      C1073   1.415       .  A
C1072      F1077   1.358       .  S
C1073      C1074   1.405       .  A
C1074      F1075   1.358       .  S
C1079      C1080   1.413       .  A
C1079      C1084   1.396       .  A
C1079      F1086   1.358       .  S
C1080      C1081   1.403       .  A
C1081      C1082   1.398       .  A
C1081      F1088   1.358       .  S
C1082      C1083   1.415       .  A
C1082      F1087   1.357       .  S
C1083      C1084   1.405       .  A
C1084      F1085   1.358       .  S
O1089     Cu1097   1.984       .  S
O1089      C1099   1.273       .  A
O1090     Cu1097   1.972       .  S
O1090      C1100   1.272       .  A
O1091     Cu1097   2.041       .  S
O1091      C1101   1.283       .  A
O1092     Cu1097   2.042       .  S
O1092      C1102   1.284       .  A
O1093     Cu1098   1.972       .  S
O1093      C1102   1.272       .  A
O1094     Cu1098   1.968       .  S
O1094      C1101   1.271       .  A
O1095     Cu1098   2.029       .  S
O1095      C1100   1.282       .  A
O1096     Cu1098   2.033       .  S
O1096      C1099   1.283       .  A
Cu1097    Cu1098   2.364       .  S
C1099      C2148   1.490       .  S
C1100      C2168   1.483       .  S
C1101      C2141   1.486       .  S
C1102      C2161   1.490       .  S
O1103     Cu1111   1.975       .  S
O1103      C1113   1.272       .  A
O1104     Cu1111   1.981       .  S
O1104      C1114   1.273       .  A
O1105     Cu1111   2.030       .  S
O1105      C1115   1.282       .  A
O1106     Cu1111   2.034       .  S
O1106      C1116   1.283       .  A
O1107     Cu1112   1.980       .  S
O1107      C1116   1.273       .  A
O1108     Cu1112   1.979       .  S
O1108      C1115   1.273       .  A
O1109     Cu1112   2.029       .  S
O1109      C1114   1.282       .  A
O1110     Cu1112   2.025       .  S
O1110      C1113   1.282       .  A
Cu1111    Cu1112   2.366       .  S
C1113      C2171   1.483       .  S
C1114      C2121   1.484       .  S
C1115      C2128   1.485       .  S
C1116      C2108   1.488       .  S
O1117     Cu1125   1.977       .  S
O1117      C1127   1.272       .  A
O1118     Cu1125   1.981       .  S
O1118      C1128   1.273       .  A
O1119     Cu1125   2.043       .  S
O1119      C1129   1.284       .  A
O1120     Cu1125   2.045       .  S
O1120      C1130   1.284       .  A
O1121     Cu1126   1.973       .  S
O1121      C1130   1.272       .  A
O1122     Cu1126   1.978       .  S
O1122      C1129   1.272       .  A
O1123     Cu1126   2.033       .  S
O1123      C1128   1.283       .  A
O1124     Cu1126   2.027       .  S
O1124      C1127   1.282       .  A
Cu1125    Cu1126   2.367       .  S
C1127      C2098   1.482       .  S
C1128      C2088   1.487       .  S
C1129      C2158   1.484       .  S
C1130      C2078   1.491       .  S
O1131     Cu1139   1.972       .  S
O1131      C1141   1.272       .  A
O1132     Cu1139   1.985       .  S
O1132      C1142   1.273       .  A
O1133     Cu1139   2.033       .  S
O1133      C1143   1.283       .  A
O1134     Cu1139   2.035       .  S
O1134      C1144   1.283       .  A
O1135     Cu1140   1.973       .  S
O1135      C1144   1.272       .  A
O1136     Cu1140   1.976       .  S
O1136      C1143   1.272       .  A
O1137     Cu1140   2.041       .  S
O1137      C1142   1.284       .  A
O1138     Cu1140   2.036       .  S
O1138      C1141   1.283       .  A
Cu1139    Cu1140   2.365       .  S
C1141      C2101   1.487       .  S
C1142      C2068   1.488       .  S
C1143      C2131   1.483       .  S
C1144      C2061   1.487       .  S
O1145     Cu1153   1.979       .  S
O1145      C1155   1.273       .  A
O1146     Cu1153   1.975       .  S
O1146      C1156   1.272       .  A
O1147     Cu1153   2.028       .  S
O1147      C1157   1.282       .  A
O1148     Cu1153   2.030       .  S
O1148      C1158   1.282       .  A
O1149     Cu1154   1.989       .  S
O1149      C1158   1.274       .  A
O1150     Cu1154   1.982       .  S
O1150      C1157   1.273       .  A
O1151     Cu1154   2.033       .  S
O1151      C1156   1.283       .  A
O1152     Cu1154   2.041       .  S
O1152      C1155   1.283       .  A
Cu1153    Cu1154   2.366       .  S
C1155      C2028   1.490       .  S
C1156      C2048   1.482       .  S
C1157      C2018   1.483       .  S
C1158      C2038   1.490       .  S
O1159     Cu1167   1.976       .  S
O1159      C1169   1.272       .  A
O1160     Cu1167   1.982       .  S
O1160      C1170   1.273       .  A
O1161     Cu1167   2.038       .  S
O1161      C1171   1.283       .  A
O1162     Cu1167   2.027       .  S
O1162      C1172   1.282       .  A
O1163     Cu1168   1.985       .  S
O1163      C1172   1.274       .  A
O1164     Cu1168   1.985       .  S
O1164      C1171   1.274       .  A
O1165     Cu1168   2.038       .  S
O1165      C1170   1.283       .  A
O1166     Cu1168   2.033       .  S
O1166      C1169   1.282       .  A
Cu1167    Cu1168   2.369       .  S
C1169      C2051   1.473       .  S
C1170      C2001   1.485       .  S
C1171      C2008   1.490       .  S
C1172      C1988   1.483       .  S
O1173     Cu1181   1.992       .  S
O1173      C1183   1.275       .  A
O1174     Cu1181   1.988       .  S
O1174      C1184   1.274       .  A
O1175     Cu1181   2.028   1_554  S
O1175      C1185   1.282       .  A
O1176     Cu1181   2.031       .  S
O1176      C1186   1.282       .  A
O1177     Cu1182   1.987       .  S
O1177      C1186   1.274       .  A
O1178     Cu1182   1.985   1_554  S
O1178      C1185   1.274       .  A
O1179     Cu1182   2.023       .  S
O1179      C1184   1.281       .  A
O1180     Cu1182   2.031       .  S
O1180      C1183   1.282       .  A
Cu1181    Cu1182   2.367       .  S
C1183      C1971   1.487       .  S
C1184      C1978   1.487       .  S
C1185      C1958   1.481       .  S
C1186      C2041   1.488       .  S
O1187     Cu1195   1.983       .  S
O1187      C1197   1.273       .  A
O1188     Cu1195   1.975       .  S
O1188      C1198   1.272       .  A
O1189     Cu1195   2.037   1_554  S
O1189      C1199   1.283       .  A
O1190     Cu1195   2.038       .  S
O1190      C1200   1.283       .  A
O1191     Cu1196   1.986       .  S
O1191      C1200   1.274       .  A
O1192     Cu1196   1.986   1_554  S
O1192      C1199   1.274       .  A
O1193     Cu1196   2.035       .  S
O1193      C1198   1.282       .  A
O1194     Cu1196   2.042       .  S
O1194      C1197   1.284       .  A
Cu1195    Cu1196   2.365       .  S
C1197      C1948   1.493       .  S
C1198      C1981   1.481       .  S
C1199      C1938   1.491       .  S
C1200      C2011   1.489       .  S
O1201     Cu1209   2.026       .  S
O1201      C1211   1.281       .  A
O1202     Cu1209   2.033       .  S
O1202      C1212   1.283       .  A
O1203     Cu1209   1.984       .  S
O1203      C1213   1.273       .  A
O1204     Cu1209   1.979       .  S
O1204      C1214   1.273       .  A
O1205     Cu1210   2.024       .  S
O1205      C1214   1.281       .  A
O1206     Cu1210   2.032       .  S
O1206      C1213   1.283       .  A
O1207     Cu1210   1.995       .  S
O1207      C1212   1.275       .  A
O1208     Cu1210   1.986       .  S
O1208      C1211   1.274       .  A
Cu1209    Cu1210   2.368       .  S
C1211      C1931   1.476       .  S
C1212      C1908   1.493       .  S
C1213      C1918   1.489       .  S
C1214      C1898   1.475       .  S
O1215     Cu1223   2.031       .  S
O1215      C1225   1.282       .  A
O1216     Cu1223   2.025       .  S
O1216      C1226   1.282       .  A
O1217     Cu1223   1.975       .  S
O1217      C1227   1.273       .  A
O1218     Cu1223   1.980       .  S
O1218      C1228   1.272       .  A
O1219     Cu1224   2.030       .  S
O1219      C1228   1.283       .  A
O1220     Cu1224   2.031       .  S
O1220      C1227   1.282       .  A
O1221     Cu1224   1.981       .  S
O1221      C1226   1.273       .  A
O1222     Cu1224   1.981       .  S
O1222      C1225   1.273       .  A
Cu1223    Cu1224   2.367       .  S
C1225      C2151   1.488       .  S
C1226      C1928   1.484       .  S
C1227      C1881   1.478       .  S
C1228      C1891   1.487       .  S
O1229     Cu1237   2.028       .  S
O1229      C1239   1.282       .  A
O1230     Cu1237   2.032       .  S
O1230      C1240   1.283       .  A
O1231     Cu1237   1.969       .  S
O1231      C1241   1.272       .  A
O1232     Cu1237   1.972       .  S
O1232      C1242   1.272       .  A
O1233     Cu1238   2.038       .  S
O1233      C1242   1.284       .  A
O1234     Cu1238   2.040       .  S
O1234      C1241   1.283       .  A
O1235     Cu1238   1.983       .  S
O1235      C1240   1.273       .  A
O1236     Cu1238   1.975       .  S
O1236      C1239   1.272       .  A
Cu1237    Cu1238   2.366       .  S
C1239      C1871   1.478       .  S
C1240      C1861   1.490       .  S
C1241      C1888   1.482       .  S
C1242      C1848   1.488       .  S
O1243     Cu1251   2.025       .  S
O1243      C1253   1.281       .  A
O1244     Cu1251   2.033       .  S
O1244      C1254   1.283       .  A
O1245     Cu1251   1.980       .  S
O1245      C1255   1.273       .  A
O1246     Cu1251   1.979       .  S
O1246      C1256   1.273       .  A
O1247     Cu1252   2.034       .  S
O1247      C1256   1.283       .  A
O1248     Cu1252   2.035       .  S
O1248      C1255   1.282       .  A
O1249     Cu1252   1.984       .  S
O1249      C1254   1.274       .  A
O1250     Cu1252   1.981       .  S
O1250      C1253   1.274       .  A
Cu1251    Cu1252   2.368       .  S
C1253      C1868   1.485       .  S
C1254      C1998   1.486       .  S
C1255      C1921   1.483       .  S
C1256      C1841   1.479       .  S
O1257     Cu1265   2.037       .  S
O1257      C1267   1.283       .  A
O1258     Cu1265   2.041       .  S
O1258      C1268   1.284       .  A
O1259     Cu1265   1.973   1_554  S
O1259      C1269   1.272       .  A
O1260     Cu1265   1.969       .  S
O1260      C1270   1.271       .  A
O1261     Cu1266   2.044       .  S
O1261      C1270   1.285       .  A
O1262     Cu1266   2.050   1_554  S
O1262      C1269   1.285       .  A
O1263     Cu1266   1.986       .  S
O1263      C1268   1.273       .  A
O1264     Cu1266   1.983       .  S
O1264      C1267   1.273       .  A
Cu1265    Cu1266   2.365       .  S
C1267      C1828   1.486       .  S
C1268      C1968   1.491       .  S
C1269      C1821   1.493       .  S
C1270      C1811   1.483       .  S
O1271     Cu1279   2.035   1_556  S
O1271      C1281   1.283       .  A
O1272     Cu1279   2.038       .  S
O1272      C1282   1.283       .  A
O1273     Cu1279   1.985       .  S
O1273      C1283   1.273       .  A
O1274     Cu1279   1.979       .  S
O1274      C1284   1.273   1_554  A
O1275     Cu1280   2.038       .  S
O1275      C1284   1.283       .  A
O1276     Cu1280   2.040       .  S
O1276      C1283   1.284   1_556  A
O1277     Cu1280   1.980   1_554  S
O1277      C1282   1.273       .  A
O1278     Cu1280   1.970       .  S
O1278      C1281   1.272       .  A
Cu1279    Cu1280   2.365   1_554  S
C1281      C1781   1.486       .  S
C1282      C1798   1.483       .  S
C1283      C1788   1.492       .  S
C1284      C1831   1.491       .  S
O1285     Cu1293   2.040       .  S
O1285      C1295   1.284       .  A
O1286     Cu1293   2.043       .  S
O1286      C1296   1.284       .  A
O1287     Cu1293   1.987       .  S
O1287      C1297   1.273       .  A
O1288     Cu1293   1.983       .  S
O1288      C1298   1.273       .  A
O1289     Cu1294   2.031       .  S
O1289      C1298   1.282       .  A
O1290     Cu1294   2.040       .  S
O1290      C1297   1.284       .  A
O1291     Cu1294   1.978       .  S
O1291      C1296   1.272       .  A
O1292     Cu1294   1.972       .  S
O1292      C1295   1.272       .  A
Cu1293    Cu1294   2.368       .  S
C1295      C1751   1.482       .  S
C1296      C1818   1.483       .  S
C1297      C1761   1.491       .  S
C1298      C1771   1.485       .  S
O1299     Cu1307   2.036       .  S
O1299      C1309   1.283       .  A
O1300     Cu1307   2.032       .  S
O1300      C1310   1.282       .  A
O1301     Cu1307   1.975       .  S
O1301      C1311   1.272       .  A
O1302     Cu1307   1.981       .  S
O1302      C1312   1.273       .  A
O1303     Cu1308   2.038       .  S
O1303      C1312   1.283       .  A
O1304     Cu1308   2.036       .  S
O1304      C1311   1.283       .  A
O1305     Cu1308   1.978       .  S
O1305      C1310   1.273       .  A
O1306     Cu1308   1.979       .  S
O1306      C1309   1.273       .  A
Cu1307    Cu1308   2.365       .  S
C1309      C1801   1.490       .  S
C1310      C1738   1.486       .  S
C1311      C1768   1.489       .  S
C1312      C2071   1.485       .  S
O1313     Cu1321   1.975       .  S
O1313      C1323   1.272       .  A
O1314     Cu2409   1.970       .  S
O1314      C1324   1.271       .  A
O1315     Cu1321   2.030       .  S
O1316     Cu2409   2.045       .  S
O1316      C1326   1.284       .  A
O1317     Cu1322   1.985       .  S
O1317      C1326   1.273       .  A
O1318     Cu1322   1.982       .  S
O1318      C1325   1.272       .  A
O1319     Cu1322   2.029       .  S
O1319      C1324   1.282       .  A
O1320     Cu1322   2.040       .  S
O1320      C2411   1.284       .  A
Cu1322    Cu2409   2.367       .  S
C1323      C1858   1.490       .  S
C1324      C1731   1.477       .  S
C1325      O2403   1.284       .  A
C1325      C3226   1.484       .  S
C1326      C1718   1.494       .  S
O1327     Cu1335   1.982       .  S
O1327      C1337   1.273       .  A
O1328     Cu1335   1.983       .  S
O1328      C1338   1.273       .  A
O1329     Cu1335   2.040       .  S
O1329      C1339   1.283       .  A
O1330     Cu1335   2.034       .  S
O1330      C1340   1.283       .  A
O1331     Cu1336   1.967       .  S
O1331      C1340   1.271       .  A
O1332     Cu1336   1.976       .  S
O1332      C1339   1.272       .  A
O1333     Cu1336   2.032       .  S
O1333      C1338   1.282       .  A
O1334     Cu1336   2.031       .  S
O1334      C1337   1.282       .  A
Cu1335    Cu1336   2.366       .  S
C1337      C2111   1.485       .  S
C1338      C1708   1.489       .  S
C1339      C1698   1.486       .  S
C1340      C1728   1.484       .  S
O1341     Cu1349   1.995   1_556  S
O1341      C1351   1.274       .  A
O1342     Cu1349   1.990       .  S
O1342      C1352   1.274       .  A
O1343     Cu1349   2.032       .  S
O1343      C1353   1.283       .  A
O1344     Cu1349   2.042       .  S
O1344      C1354   1.284   1_554  A
O1345     Cu1350   1.977       .  S
O1345      C1354   1.272       .  A
O1346     Cu1350   1.970       .  S
O1346      C1353   1.272   1_556  A
O1347     Cu1350   2.036   1_554  S
O1347      C1352   1.283       .  A
O1348     Cu1350   2.040       .  S
O1348      C1351   1.284       .  A
Cu1349    Cu1350   2.366   1_554  S
C1351      C1721   1.493       .  S
C1352      C2081   1.488       .  S
C1353      C1691   1.479       .  S
C1354      C1678   1.492       .  S
O1355     Cu1363   1.982       .  S
O1355      C1365   1.273       .  A
O1356     Cu2451   1.974       .  S
O1356      C1366   1.272   1_556  A
O1357     Cu1363   2.029   1_554  S
O1358     Cu2451   2.029       .  S
O1358      C1368   1.282       .  A
O1359     Cu1364   1.983   1_556  S
O1359      C1368   1.273       .  A
O1360     Cu1364   1.974       .  S
O1360      C1367   1.272       .  A
O1361     Cu1364   2.033       .  S
O1361      C1366   1.283       .  A
O1362     Cu1364   2.044       .  S
O1362      C2453   1.284       .  A
Cu1364    Cu2451   2.367   1_554  S
C1365      C1791   1.491       .  S
C1366      C1688   1.486       .  S
C1367      O2445   1.281       .  A
C1367      C3146   1.477       .  S
C1368      C1711   1.482       .  S
O1369     Cu2465   2.032       .  S
O1369      C1379   1.283       .  A
O1370     Cu1377   2.045       .  S
O1370      C1380   1.284       .  A
O1371     Cu2465   1.972       .  S
O1371      C1381   1.271       .  A
O1372     Cu1377   1.977       .  S
O1373     Cu1378   2.046       .  S
O1373      C1382   1.284       .  A
O1374     Cu1378   2.042       .  S
O1374      C1381   1.284       .  A
O1375     Cu1378   1.978       .  S
O1375      C2468   1.273       .  A
O1376     Cu1378   1.992       .  S
O1376      C1379   1.274       .  A
Cu1378    Cu2465   2.364       .  S
C1379      C2031   1.491       .  S
C1380      C1668   1.491       .  S
C1381      C1808   1.489       .  S
C1382      O2460   1.272       .  A
C1382      C2746   1.492       .  S
O1383     Cu1391   2.038       .  S
O1383      C1393   1.283       .  A
O1384     Cu1391   2.033       .  S
O1384      C1394   1.283       .  A
O1385     Cu1391   1.980       .  S
O1385      C1395   1.273       .  A
O1386     Cu1391   1.981       .  S
O1386      C1396   1.273       .  A
O1387     Cu1392   2.027       .  S
O1387      C1396   1.282       .  A
O1388     Cu1392   2.025       .  S
O1388      C1395   1.281       .  A
O1389     Cu1392   1.984       .  S
O1389      C1394   1.273       .  A
O1390     Cu1392   1.984       .  S
O1390      C1393   1.274       .  A
Cu1391    Cu1392   2.368       .  S
C1393      C1701   1.487       .  S
C1394      C1671   1.483       .  S
C1395      C1778   1.476       .  S
C1396      C1651   1.487       .  S
O1397     Cu1405   2.040       .  S
O1397      C1407   1.284       .  A
O1398     Cu1405   2.040       .  S
O1398      C1408   1.284       .  A
O1399     Cu1405   1.971       .  S
O1399      C1409   1.272       .  A
O1400     Cu1405   1.979       .  S
O1400      C1410   1.272       .  A
O1401     Cu1406   2.041       .  S
O1401      C1410   1.284       .  A
O1402     Cu1406   2.036       .  S
O1402      C1409   1.283       .  A
O1403     Cu1406   1.973       .  S
O1403      C1408   1.272       .  A
O1404     Cu1406   1.977       .  S
O1404      C1407   1.272       .  A
Cu1405    Cu1406   2.366       .  S
C1407      C1661   1.487       .  S
C1408      C1748   1.489       .  S
C1409      C1638   1.478       .  S
C1410      C1628   1.489       .  S
O1411     Cu1419   2.028       .  S
O1411      C1421   1.282       .  A
O1412     Cu1419   2.031       .  S
O1412      C2510   1.282       .  A
O1413     Cu1419   1.974       .  S
O1413      C1423   1.272       .  A
O1414     Cu1419   1.972       .  S
O1414      C2512   1.272       .  A
O1415     Cu1420   2.029       .  S
O1415      C1424   1.282       .  A
O1416     Cu2508   2.040       .  S
O1416      C1423   1.283       .  A
O1417     Cu1420   1.981       .  S
O1417      C1422   1.273       .  A
O1418     Cu2508   1.978       .  S
O1418      C1421   1.273       .  A
Cu1419    Cu2508   2.366       .  S
C1421      C1741   1.482       .  S
C1422      C1648   1.477       .  S
C1423      C2118   1.485       .  S
C1424      C1641   1.486       .  S
O1425     Cu1433   1.987       .  S
O1425      C1435   1.274       .  A
O1426     Cu1433   1.981       .  S
O1426      C1436   1.273       .  A
O1427     Cu1433   2.034       .  S
O1427      C1437   1.283       .  A
O1428     Cu1433   2.040       .  S
O1428      C1438   1.283       .  A
O1429     Cu1434   1.983       .  S
O1429      C1438   1.273       .  A
O1430     Cu1434   1.981       .  S
O1430      C1437   1.273       .  A
O1431     Cu1434   2.030       .  S
O1431      C1436   1.282       .  A
O1432     Cu1434   2.032       .  S
O1432      C1435   1.282       .  A
Cu1433    Cu1434   2.366       .  S
C1435      C1611   1.483       .  S
C1436      C2021   1.487       .  S
C1437      C1618   1.489       .  S
C1438      C1631   1.490       .  S
O1439     Cu1447   1.988       .  S
O1440     Cu1447   1.989       .  S
O1440      C1450   1.274       .  A
O1441     Cu1447   2.034       .  S
O1442     Cu1447   2.030       .  S
O1442      C1452   1.282       .  A
O1443     Cu1448   1.974       .  S
O1443      C2540   1.272       .  A
O1444     Cu1448   1.980       .  S
O1444      C1451   1.273       .  A
O1445      C1450   1.283       .  A
O1446     Cu1448   2.040       .  S
O1446      C1449   1.283       .  A
Cu1448     O2533   2.049       .  S
Cu1448    Cu2535   2.366       .  S
C1449      O2527   1.273       .  A
C1449      C1621   1.488       .  S
C1450      C1911   1.494       .  S
C1451      O2529   1.282       .  A
C1451      C1598   1.480       .  S
C1452      C1991   1.487       .  S
O1453     Cu1461   1.980       .  S
O1454     Cu1461   1.988       .  S
O1454      C1464   1.274       .  A
O1455     Cu1461   2.035       .  S
O1456     Cu1461   2.033       .  S
O1456      C1466   1.283       .  A
O1457     Cu1462   1.979       .  S
O1457      C2554   1.273       .  A
O1458     Cu1462   1.983       .  S
O1458      C1465   1.273       .  A
O1459     Cu1462   2.039       .  S
O1459      C2552   1.283       .  A
O1460     Cu1462   2.037       .  S
O1460      C1463   1.283       .  A
Cu1462    Cu2549   2.366       .  S
C1463      O2541   1.272       .  A
C1463      C1588   1.480       .  S
C1464      C1758   1.491       .  S
C1465      O2543   1.283       .  A
C1465      C1608   1.491       .  S
C1466      C1961   1.489       .  S
O1467     Cu1475   1.983       .  S
O1467      C1477   1.273       .  A
O1468     Cu1475   1.987       .  S
O1468      C1478   1.274       .  A
O1469     Cu1475   2.036       .  S
O1469      C1479   1.283       .  A
O1470     Cu1475   2.040       .  S
O1470      C1480   1.284       .  A
O1471     Cu1476   1.979       .  S
O1471      C1480   1.273       .  A
O1472     Cu1476   1.979       .  S
O1472      C1479   1.273       .  A
O1473     Cu1476   2.038       .  S
O1473      C1478   1.283       .  A
O1474     Cu1476   2.032       .  S
O1474      C1477   1.283       .  A
Cu1475    Cu1476   2.366       .  S
C1477      C1591   1.487       .  S
C1478      C1578   1.484       .  S
C1479      C1601   1.490       .  S
C1480      C1941   1.488       .  S
O1481     Cu1489   2.036       .  S
O1481      C1491   1.282       .  A
O1482     Cu1489   2.037   1_554  S
O1482      C1492   1.283       .  A
O1483     Cu1489   1.988   1_554  S
O1483      C1493   1.274   1_554  A
O1484     Cu1489   1.980       .  S
O1484      C1494   1.273       .  A
O1485     Cu1490   2.028       .  S
O1485      C1494   1.282       .  A
O1486     Cu1490   2.034       .  S
O1486      C1493   1.283       .  A
O1487     Cu1490   1.981   1_554  S
O1487      C1492   1.273       .  A
O1488     Cu1490   1.978       .  S
O1488      C1491   1.273       .  A
Cu1489    Cu1490   2.366       .  S
C1491      C1851   1.481       .  S
C1492      C1558   1.489       .  S
C1493      C1681   1.492       .  S
C1494      C1571   1.486       .  S
O1495     Cu1503   2.027       .  S
O1495      C1505   1.282       .  A
O1496     Cu1503   2.024       .  S
O1496      C1506   1.281       .  A
O1497     Cu1503   1.975       .  S
O1497      C1507   1.272       .  A
O1498     Cu1503   1.976   1_554  S
O1498      C1508   1.272       .  A
O1499     Cu1504   2.038   1_554  S
O1499      C1508   1.283       .  A
O1500     Cu1504   2.036       .  S
O1500      C1507   1.283       .  A
O1501     Cu1504   1.987       .  S
O1501      C1506   1.274       .  A
O1502     Cu1504   1.989       .  S
O1502      C1505   1.274       .  A
Cu1503    Cu1504   2.367       .  S
C1506      C1568   1.479       .  S
C1507      C1838   1.488       .  S
C1508      C1548   1.484       .  S
O1509     Cu1517   2.047       .  S
O1509      C1519   1.285       .  A
O1510     Cu1517   2.050       .  S
O1511     Cu1517   1.982       .  S
O1511      C1521   1.273       .  A
O1512     Cu1517   1.973       .  S
O1512      C1522   1.272       .  A
O1513     Cu1518   2.030       .  S
O1513      C2610   1.282       .  A
O1514      C1521   1.283       .  A
O1515     Cu1518   1.973       .  S
O1515      C1520   1.272       .  A
O1516      C1519   1.272       .  A
Cu1518     O2602   2.034       .  S
Cu1518     O2604   1.972       .  S
Cu1518    Cu2605   2.367       .  S
C1519      C1541   1.492       .  S
C1520      O2598   1.284       .  A
C1520      C2091   1.487       .  S
C1521      C1561   1.488       .  S
O1523     Cu1531   2.031       .  S
O1523      C1533   1.282       .  A
O1524     Cu1531   2.032       .  S
O1524      C1534   1.282       .  A
O1525     Cu1531   1.986       .  S
O1525      C1535   1.273       .  A
O1526     Cu1531   1.980       .  S
O1526      C1536   1.273       .  A
O1527     Cu1532   2.041       .  S
O1527      C1536   1.284       .  A
O1528     Cu1532   2.043       .  S
O1528      C1535   1.284       .  A
O1529     Cu1532   1.983       .  S
O1529      C1534   1.273       .  A
O1530     Cu1532   1.973       .  S
O1530      C1533   1.272       .  A
Cu1531    Cu1532   2.366       .  S
C1533      C1901   1.486       .  S
C1534      C1551   1.489       .  S
C1535      C1581   1.485       .  S
C1536      C1538   1.489       .  S
C1537      C1538   1.404       .  A
C1537      C1542   1.399       .  A
C1537      F1544   1.358       .  S
C1538      C1539   1.415       .  A
C1539      C1540   1.400       .  A
C1539      F1546   1.358       .  S
C1540      C1541   1.406       .  A
C1540      F1545   1.358       .  S
C1541      C1542   1.417       .  A
C1542      F1543   1.358       .  S
C1547      C1548   1.403       .  A
C1547      C1552   1.400       .  A
C1547      F1554   1.357       .  S
C1548      C1549   1.412       .  A
C1549      C1550   1.398       .  A
C1549      F1556   1.358       .  S
C1550      C1551   1.406       .  A
C1550      F1555   1.357       .  S
C1551      C1552   1.415       .  A
C1552      F1553   1.358       .  S
C1557      C1558   1.414       .  A
C1557      C1562   1.399       .  A
C1557      F1564   1.358       .  S
C1558      C1559   1.405       .  A
C1559      C1560   1.400       .  A
C1559      F1566   1.357       .  S
C1560      C1561   1.414       .  A
C1560      F1565   1.358       .  S
C1561      C1562   1.405       .  A
C1562      F1563   1.358       .  S
C1567      C1568   1.403       .  A
C1567      C1572   1.396   1_556  A
C1567      F1574   1.358   1_556  S
C1568      C1569   1.410       .  A
C1569      C1570   1.399       .  A
C1569      F1576   1.358       .  S
C1570      C1571   1.408       .  A
C1570      F1575   1.358       .  S
C1571      C1572   1.414   1_556  A
C1572      F1573   1.358       .  S
C1577      C1578   1.411       .  A
C1577      C1582   1.400       .  A
C1577      F1584   1.358       .  S
C1578      C1579   1.405       .  A
C1579      C1580   1.401       .  A
C1579      F1586   1.358       .  S
C1580      C1581   1.412       .  A
C1580      F1585   1.358       .  S
C1581      C1582   1.405       .  A
C1582      F1583   1.358       .  S
C1587      C1588   1.410       .  A
C1587      C1592   1.397       .  A
C1587      F2682   1.358       .  S
C1588      C1589   1.403       .  A
C1589      C1590   1.400       .  A
C1589      F1596   1.358       .  S
C1590      C1591   1.416       .  A
C1590      F1595   1.358       .  S
C1591      C1592   1.406       .  A
C1592      F2681   1.358       .  S
C1597      F1604   1.358       .  S
C1598      C2685   1.401       .  A
C1598      C1599   1.411       .  A
C1599      C1600   1.400       .  A
C1599      F1606   1.359       .  S
C1600      C1601   1.408       .  A
C1600      F1605   1.358       .  S
C1601      C1602   1.416       .  A
C1602      C2685   1.397       .  A
C1602      F2691   1.358       .  S
C1607      C1608   1.407       .  A
C1607      C1612   1.400       .  A
C1607      F2702   1.357       .  S
C1608      C1609   1.416       .  A
C1609      C1610   1.399       .  A
C1609      F1616   1.358       .  S
C1610      C1611   1.403       .  A
C1610      F1615   1.358       .  S
C1611      C1612   1.411       .  A
C1612      F2701   1.358       .  S
C1617      C1618   1.406       .  A
C1617      C1622   1.398       .  A
C1617      F2712   1.358       .  S
C1618      C1619   1.415       .  A
C1619      C1620   1.399       .  A
C1619      F1626   1.357       .  S
C1620      C1621   1.405       .  A
C1620      F1625   1.358       .  S
C1621      C1622   1.414       .  A
C1622      F2711   1.358       .  S
C1627      C1628   1.415       .  A
C1627      C1632   1.400       .  A
C1627      F1634   1.358       .  S
C1628      C1629   1.405       .  A
C1629      C1630   1.399       .  A
C1629      F1636   1.357       .  S
C1630      C1631   1.414       .  A
C1630      F1635   1.358       .  S
C1631      C1632   1.406       .  A
C1632      F1633   1.358       .  S
C1637      C2726   1.403       .  A
C1637      C1642   1.397       .  A
C1637      F1644   1.358       .  S
C1638      C1639   1.411       .  A
C1639      C1640   1.397       .  A
C1639      F1646   1.358       .  S
C1640      C1641   1.406       .  A
C1640      F1645   1.358       .  S
C1642      C2729   1.416       .  A
C1642      F1643   1.358       .  S
C1647      C2736   1.405       .  A
C1647      C1652   1.399       .  A
C1647      F1654   1.358       .  S
C1648      C1649   1.409       .  A
C1649      C1650   1.398       .  A
C1649      F1656   1.358       .  S
C1650      C1651   1.408       .  A
C1650      F1655   1.358       .  S
C1652      C2739   1.415       .  A
C1652      F1653   1.358       .  S
C1657      C1658   1.415       .  A
C1657      C1662   1.398       .  A
C1657      F1664   1.358       .  S
C1659      C2746   1.405       .  A
C1659      C1660   1.401       .  A
C1659      F1666   1.356       .  S
C1660      C2749   1.414       .  A
C1660      F1665   1.358       .  S
C1661      C1662   1.402       .  A
C1662      F1663   1.356       .  S
C1667      C2756   1.413       .  A
C1667      C1672   1.398       .  A
C1667      F1674   1.358       .  S
C1668      C1669   1.407       .  A
C1669      C1670   1.401       .  A
C1669      F1676   1.358       .  S
C1670      C1671   1.411       .  A
C1670      F1675   1.358       .  S
C1672      C2759   1.407       .  A
C1672      F1673   1.358       .  S
C1677      C1678   1.406   1_554  A
C1677      C1682   1.401   1_565  A
C1677      F1684   1.357       .  S
C1678      C1679   1.415       .  A
C1679      C1680   1.398   1_565  A
C1679      F1686   1.358       .  S
C1680      C1681   1.406       .  A
C1680      F1685   1.358       .  S
C1681      C1682   1.415   1_556  A
C1682      F1683   1.358       .  S
C1687      C1688   1.416   1_556  A
C1687      C1692   1.396       .  A
C1687      F1694   1.358       .  S
C1688      C1689   1.406       .  A
C1689      C1690   1.397       .  A
C1689      F1696   1.358       .  S
C1690      C1691   1.412       .  A
C1690      F1695   1.359       .  S
C1691      C1692   1.402   1_554  A
C1692      F1693   1.358       .  S
C1697      C1698   1.405       .  A
C1697      C1702   1.399       .  A
C1697      F1704   1.358       .  S
C1698      C1699   1.413       .  A
C1699      C1700   1.399       .  A
C1699      F1706   1.358       .  S
C1700      C1701   1.406       .  A
C1700      F1705   1.358       .  S
C1701      C1702   1.413       .  A
C1702      F1703   1.358       .  S
C1707      C1708   1.407       .  A
C1707      C1712   1.399       .  A
C1707      F1714   1.358       .  S
C1708      C1709   1.415       .  A
C1709      C1710   1.398       .  A
C1709      F1716   1.358       .  S
C1710      C1711   1.403       .  A
C1710      F1715   1.358       .  S
C1711      C1712   1.411       .  A
C1712      F1713   1.358       .  S
C1717      C1718   1.415       .  A
C1717      C1722   1.400       .  A
C1717      F1724   1.358       .  S
C1718      C1719   1.406       .  A
C1719      C1720   1.404       .  A
C1719      F2814   1.357       .  S
C1720      C1721   1.415       .  A
C1720      F2813   1.358       .  S
C1721      C1722   1.405       .  A
C1722      F1723   1.358       .  S
C1727      C1728   1.406       .  A
C1727      C1732   1.398       .  A
C1727      F1734   1.358       .  S
C1728      C1729   1.415       .  A
C1729      C1730   1.395       .  A
C1729      F1736   1.358       .  S
C1730      C1731   1.401       .  A
C1730      F1735   1.358       .  S
C1731      C1732   1.412       .  A
C1732      F2821   1.358       .  S
C1737      C1738   1.406       .  A
C1737      C1742   1.397       .  A
C1737      F1744   1.358       .  S
C1738      C1739   1.415       .  A
C1739      C1740   1.398       .  A
C1739      F1746   1.358       .  S
C1740      C1741   1.404       .  A
C1740      F1745   1.358       .  S
C1741      C1742   1.412       .  A
C1742      F2831   1.358       .  S
C1747      C1748   1.406       .  A
C1747      C1752   1.399       .  A
C1747      F1754   1.358       .  S
C1748      C1749   1.417       .  A
C1749      C1750   1.398       .  A
C1749      F1756   1.357       .  S
C1750      C1751   1.401       .  A
C1750      F1755   1.358       .  S
C1751      C1752   1.413       .  A
C1752      F1753   1.358       .  S
C1757      C1758   1.407       .  A
C1757      C1762   1.402       .  A
C1757      F1764   1.358       .  S
C1758      C1759   1.414       .  A
C1759      C1760   1.400       .  A
C1759      F1766   1.358       .  S
C1760      C1761   1.406       .  A
C1760      F1765   1.358       .  S
C1761      C1762   1.415       .  A
C1762      F1763   1.358       .  S
C1767      C1768   1.407       .  A
C1767      C1772   1.399       .  A
C1767      F1774   1.358       .  S
C1768      C1769   1.415       .  A
C1769      C1770   1.397       .  A
C1769      F1776   1.358       .  S
C1770      C1771   1.404       .  A
C1770      F1775   1.358       .  S
C1771      C1772   1.413       .  A
C1772      F1773   1.358       .  S
C1777      C1778   1.401       .  A
C1777      C1782   1.396       .  A
C1777      F1784   1.358       .  S
C1778      C1779   1.409       .  A
C1779      C1780   1.398       .  A
C1779      F1786   1.358       .  S
C1780      C1781   1.407       .  A
C1780      F1785   1.358       .  S
C1781      C1782   1.416       .  A
C1782      F1783   1.358       .  S
C1787      C1788   1.405   1_556  A
C1787      C1792   1.398       .  A
C1787      F1794   1.357       .  S
C1788      C1789   1.415       .  A
C1789      C1790   1.401       .  A
C1789      F1796   1.358       .  S
C1790      C1791   1.407   1_554  A
C1791      C1792   1.414       .  A
C1792      F1793   1.358       .  S
F1795      C2878   1.357       .  S
C1797      C1798   1.412       .  A
C1797      C1802   1.399       .  A
C1797      F1804   1.358       .  S
C1798      C1799   1.403       .  A
C1799      C1800   1.399       .  A
C1799      F1806   1.358       .  S
C1800      C1801   1.416       .  A
C1800      F1805   1.358       .  S
C1801      C1802   1.406       .  A
C1802      F1803   1.357       .  S
C1807      C1808   1.417       .  A
C1807      C1812   1.398       .  A
C1807      F2902   1.358       .  S
C1808      C1809   1.405       .  A
C1809      C1810   1.399       .  A
C1809      F1816   1.357       .  S
C1810      C1811   1.413       .  A
C1810      F1815   1.358       .  S
C1811      C1812   1.401       .  A
C1812      F1813   1.358       .  S
C1817      C1818   1.412       .  A
C1817      C1822   1.401       .  A
C1817      F1824   1.358       .  S
C1818      C1819   1.401       .  A
C1819      C1820   1.399       .  A
C1819      F1826   1.358       .  S
C1820      C1821   1.418       .  A
C1820      F1825   1.358       .  S
C1821      C1822   1.407       .  A
C1822      F1823   1.358       .  S
C1827      C1828   1.403       .  A
C1827      C1832   1.398   1_556  A
C1827      F1834   1.358   1_556  S
C1828      C1829   1.413       .  A
C1829      C1830   1.401       .  A
C1829      F1836   1.358       .  S
C1830      C1831   1.407       .  A
C1830      F1835   1.358       .  S
C1831      C1832   1.416   1_556  A
C1832      F1833   1.358       .  S
C1837      C1838   1.416       .  A
C1837      F1844   1.358       .  S
C1839      C2926   1.407       .  A
C1839      C1840   1.399       .  A
C1839      F1846   1.358       .  S
C1840      C1841   1.410       .  A
C1840      F1845   1.358       .  S
C1841      C1842   1.401       .  A
C1842      C2925   1.398       .  A
C1842      F2931   1.358       .  S
C1847      C1848   1.406       .  A
C1847      C1852   1.398       .  A
C1847      F1854   1.358       .  S
C1848      C1849   1.417       .  A
C1849      C1850   1.399       .  A
C1849      F1856   1.358       .  S
C1850      C1851   1.402       .  A
C1850      F1855   1.358       .  S
C1851      C1852   1.411       .  A
C1852      F1853   1.358       .  S
C1857      C1858   1.406       .  A
C1857      C1862   1.400   1_565  A
C1857      F1864   1.357       .  S
C1858      C1859   1.415       .  A
C1859      C1860   1.397   1_565  A
C1859      F1866   1.358       .  S
C1860      C1861   1.405       .  A
C1860      F1865   1.358       .  S
C1861      C1862   1.415       .  A
C1862      F1863   1.358       .  S
C1867      C1868   1.414       .  A
C1867      C1872   1.397       .  A
C1867      F1874   1.358       .  S
C1868      C1869   1.407       .  A
C1869      C1870   1.397       .  A
C1869      F1876   1.358       .  S
C1870      C1871   1.411       .  A
C1870      F1875   1.359       .  S
C1871      C1872   1.403       .  A
C1872      F1873   1.358       .  S
C1877      C1878   1.407       .  A
C1877      C1882   1.396       .  A
C1877      F1884   1.358       .  S
C1878      C2610   1.488       .  S
C1878      C2967   1.416       .  A
C1879      F1886   1.358       .  S
C1880      C2967   1.399       .  A
C1880      C1881   1.402       .  A
C1880      F2973   1.358       .  S
C1881      C1882   1.410       .  A
C1882      F1883   1.359       .  S
C1887      C1888   1.412       .  A
C1887      C1892   1.395       .  A
C1887      F1894   1.358       .  S
C1888      C1889   1.403       .  A
C1889      C1890   1.400       .  A
C1889      F1896   1.357       .  S
C1890      C1891   1.416       .  A
C1890      F1895   1.358       .  S
C1891      C1892   1.405       .  A
C1892      F1893   1.358       .  S
C1897      C1898   1.402       .  A
C1897      C1902   1.397       .  A
C1897      F1904   1.358       .  S
C1898      C1899   1.409       .  A
C1899      C1900   1.397       .  A
C1899      F1906   1.358       .  S
C1900      C1901   1.407       .  A
C1900      F1905   1.358       .  S
C1901      C1902   1.416       .  A
C1902      F1903   1.358       .  S
C1907      C1908   1.415       .  A
C1907      C1912   1.404       .  A
C1907      F1914   1.358       .  S
C1908      C1909   1.406       .  A
C1909      C1910   1.398       .  A
C1909      F1916   1.358       .  S
C1910      C1911   1.414       .  A
C1910      F1915   1.358       .  S
C1911      C1912   1.408       .  A
C1912      F1913   1.358       .  S
C1917      C1918   1.406       .  A
C1917      C1922   1.397       .  A
C1917      F1924   1.358       .  S
C1918      C1919   1.416       .  A
C1919      C1920   1.400       .  A
C1919      F1926   1.358       .  S
C1920      C1921   1.404       .  A
C1920      F1925   1.358       .  S
C1921      C1922   1.411       .  A
C1922      F1923   1.358       .  S
C1927      C1928   1.406       .  A
C1927      C1932   1.397       .  A
C1927      F1934   1.358       .  S
C1928      C1929   1.414       .  A
C1929      C1930   1.399       .  A
C1929      F1936   1.358       .  S
C1930      C1931   1.403       .  A
C1930      F1935   1.358       .  S
C1931      C1932   1.408       .  A
C1932      F1933   1.358       .  S
C1937      C1938   1.415       .  A
C1937      C1942   1.400       .  A
C1937      F1944   1.358       .  S
C1938      C1939   1.406       .  A
C1939      C1940   1.399       .  A
C1939      F1946   1.358       .  S
C1940      C1941   1.414       .  A
C1940      F1945   1.358       .  S
C1941      C1942   1.404       .  A
C1942      F1943   1.358       .  S
C1947      C1948   1.415       .  A
C1947      C1952   1.400       .  A
C1947      F1954   1.358       .  S
C1948      C1949   1.407       .  A
C1949      C1950   1.401       .  A
C1949      F1956   1.358   1_556  S
C1950      C1951   1.415       .  A
C1950      F1955   1.358   1_556  S
C1951      C2593   1.493       .  S
C1951      C1952   1.406       .  A
C1952      F3041   1.358       .  S
C1957      C1958   1.410       .  A
C1957      C1962   1.399       .  A
C1957      F1964   1.358       .  S
C1958      C1959   1.403       .  A
C1960      C3047   1.398       .  A
C1960      C3049   1.416       .  A
C1960      F1965   1.358       .  S
C1961      C1962   1.408       .  A
C1962      F1963   1.358       .  S
F1966      C3047   1.358       .  S
C1967      C1968   1.406       .  A
C1967      C1972   1.401       .  A
C1967      F1974   1.357       .  S
C1968      C1969   1.414   1_556  A
C1969      C3058   1.400   1_554  A
C1969      F1976   1.358       .  S
C1970      C1971   1.405       .  A
C1970      F1975   1.357       .  S
C1972      C3059   1.414       .  A
C1972      F1973   1.358       .  S
C1977      C1978   1.415       .  A
C1977      C1982   1.399       .  A
C1977      F1984   1.358       .  S
C1978      C1979   1.407       .  A
C1979      C1980   1.396       .  A
C1979      F1986   1.358       .  S
C1980      C1981   1.411       .  A
C1980      F1985   1.358   1_556  S
C1981      C1982   1.404       .  A
C1982      F1983   1.358       .  S
C1987      C1988   1.412       .  A
C1987      C1992   1.398       .  A
C1987      F1994   1.358       .  S
C1988      C1989   1.404       .  A
C1989      C1990   1.398       .  A
C1990      C1991   1.414       .  A
C1991      C1992   1.406       .  A
C1992      F1993   1.358       .  S
F1995      C3078   1.358       .  S
F1996      C3077   1.358       .  S
C1997      C2002   1.399       .  A
C1997      F2004   1.358       .  S
C1998      C3085   1.413       .  A
C1998      C1999   1.405       .  A
C1999      C2000   1.399       .  A
C1999      F2006   1.358       .  S
C2000      C3089   1.413       .  A
C2000      F2005   1.358       .  S
C2001      C2002   1.404       .  A
C2002      F2003   1.358       .  S
C2007      C2008   1.406       .  A
C2007      C2012   1.400       .  A
C2007      F2014   1.358       .  S
C2008      C2009   1.414       .  A
C2009      C2010   1.400       .  A
C2009      F2016   1.358       .  S
C2010      C2011   1.405       .  A
C2010      F2015   1.357       .  S
C2011      C2012   1.414       .  A
C2012      F2013   1.358       .  S
C2017      C2018   1.412       .  A
C2017      C2022   1.398       .  A
C2017      F2024   1.358       .  S
C2018      C2019   1.404       .  A
C2019      C2020   1.397       .  A
C2019      F2026   1.358       .  S
C2020      C2021   1.414       .  A
C2020      F2025   1.358       .  S
C2021      C2022   1.406       .  A
C2022      F2023   1.358       .  S
C2027      C2028   1.414       .  A
C2027      C2032   1.397       .  A
C2027      F2034   1.358       .  S
C2028      C2029   1.406       .  A
C2029      C2030   1.402       .  A
C2029      F2036   1.357       .  S
C2030      C2031   1.415       .  A
C2030      F2035   1.358       .  S
C2031      C2032   1.405       .  A
C2032      F2033   1.357       .  S
C2037      C2038   1.414       .  A
C2037      C2042   1.399       .  A
C2037      F2044   1.358       .  S
C2038      C2039   1.407       .  A
C2039      C2040   1.399       .  A
C2039      F2046   1.358       .  S
C2040      C2041   1.413       .  A
C2040      F2045   1.358       .  S
C2041      C2042   1.405       .  A
C2042      F2043   1.357       .  S
C2047      C2048   1.405       .  A
C2047      C2052   1.397       .  A
C2047      F2054   1.358       .  S
C2048      C2049   1.414       .  A
C2049      C2050   1.398       .  A
C2049      F2056   1.358       .  S
C2050      C2051   1.401       .  A
C2050      F2055   1.358       .  S
C2051      C2052   1.408       .  A
C2052      F2053   1.358       .  S
C2057      C3146   1.411       .  A
C2057      C3150   1.396       .  A
C2057      F2064   1.358       .  S
C2058      C2059   1.403       .  A
C2059      C2060   1.397       .  A
C2059      F2066   1.358       .  S
C2060      C2061   1.416       .  A
C2060      F2065   1.358       .  S
C2061      C2062   1.407       .  A
F2063      C3150   1.358       .  S
C2067      C2068   1.404       .  A
C2067      F2074   1.358       .  S
C2069      C3156   1.413       .  A
C2069      C2070   1.399       .  A
C2069      F2076   1.358       .  S
C2070      C2071   1.404       .  A
C2070      F2075   1.358       .  S
C2071      C2072   1.413       .  A
C2072      C3155   1.399       .  A
C2072      F2073   1.358       .  S
C2077      C2078   1.416       .  A
C2077      C2082   1.398       .  A
C2077      F2084   1.358       .  S
C2078      C2079   1.406       .  A
C2079      C2080   1.402       .  A
C2079      F2086   1.358       .  S
C2080      C2081   1.414       .  A
C2080      F2085   1.358       .  S
C2081      C2082   1.404       .  A
C2082      F2083   1.358       .  S
C2087      C2088   1.414       .  A
C2087      C2092   1.400   1_565  A
C2087      F2094   1.358       .  S
C2088      C2089   1.405       .  A
C2089      C2090   1.397   1_565  A
C2089      F2096   1.358       .  S
C2090      C2091   1.413       .  A
C2090      F2095   1.358       .  S
C2091      C2092   1.406       .  A
C2092      F2093   1.358       .  S
C2097      C2098   1.403       .  A
C2097      C2102   1.395       .  A
C2097      F2104   1.358       .  S
C2098      C2099   1.413       .  A
C2099      C2100   1.399       .  A
C2099      F2106   1.358       .  S
C2100      C2101   1.406       .  A
C2100      F2105   1.358       .  S
C2101      C2102   1.415       .  A
C2102      F2103   1.358       .  S
C2107      C2108   1.406       .  A
C2107      C2112   1.399       .  A
C2107      F2114   1.358       .  S
C2108      C2109   1.414       .  A
C2109      C2110   1.398       .  A
C2109      F2116   1.358       .  S
C2110      C2111   1.404       .  A
C2110      F2115   1.358       .  S
C2111      C2112   1.413       .  A
C2112      F2113   1.358       .  S
C2117      C2118   1.413       .  A
C2117      C2122   1.397       .  A
C2117      F2124   1.358       .  S
C2118      C2119   1.406       .  A
C2119      C2120   1.400       .  A
C2119      F2126   1.358       .  S
C2120      C2121   1.413       .  A
C2120      F2125   1.358       .  S
C2121      C2122   1.404       .  A
C2122      F2123   1.358       .  S
C2127      C2128   1.405       .  A
C2127      C2132   1.398       .  A
C2127      F2134   1.357       .  S
C2128      C2129   1.414       .  A
C2129      C2130   1.398       .  A
C2129      F2136   1.358       .  S
C2130      C2131   1.403       .  A
C2130      F2135   1.356       .  S
C2131      C2132   1.413       .  A
C2132      F2133   1.358       .  S
C2137      C2138   1.402       .  A
C2137      C2142   1.395       .  A
C2137      F2144   1.358       .  S
C2139      C3226   1.414       .  A
C2139      C2140   1.402       .  A
C2139      F2146   1.358       .  S
C2140      C3229   1.406       .  A
C2140      F2145   1.358       .  S
C2141      C2142   1.415       .  A
C2142      F2143   1.358       .  S
C2147      C3236   1.414       .  A
C2147      C2152   1.399   1_565  A
C2147      F2154   1.358       .  S
C2148      C2149   1.405       .  A
C2149      C2150   1.399   1_565  A
C2149      F2156   1.356       .  S
C2150      F2155   1.358       .  S
C2151      C3238   1.413       .  A
C2151      C2152   1.406       .  A
C2152      F2153   1.356       .  S
C2157      C2158   1.412       .  A
C2157      C2162   1.400       .  A
C2157      F2164   1.358       .  S
C2158      C2159   1.401       .  A
C2159      C2160   1.399       .  A
C2159      F2166   1.357       .  S
C2160      C2161   1.417       .  A
C2160      F2165   1.358       .  S
C2161      C2162   1.406       .  A
C2162      F2163   1.358       .  S
C2167      C2168   1.413       .  A
C2167      C2172   1.396       .  A
C2167      F2174   1.358       .  S
C2168      C2169   1.405       .  A
C2169      C2170   1.397       .  A
C2169      F2176   1.358       .  S
C2170      C2171   1.413       .  A
C2170      F2175   1.358       .  S
C2171      C2172   1.405       .  A
C2172      F2173   1.358       .  S
O2177     Cu2185   1.988       .  S
O2177      C2187   1.274       .  A
O2178     Cu2185   1.976       .  S
O2178      C2188   1.273       .  A
O2179     Cu2185   2.048       .  S
O2179      C2189   1.284       .  A
O2180     Cu2185   2.049       .  S
O2180      C2190   1.285       .  A
O2181     Cu2186   1.971       .  S
O2181      C2190   1.271       .  A
O2182     Cu2186   1.966       .  S
O2182      C2189   1.271       .  A
O2183     Cu2186   2.019       .  S
O2183      C2188   1.281       .  A
O2184     Cu2186   2.023       .  S
O2184      C2187   1.282       .  A
Cu2185    Cu2186   2.364       .  S
C2187      C3236   1.488       .  S
C2188      C3256   1.483       .  S
C2189      C3229   1.490       .  S
C2190      C3249   1.491       .  S
O2191     Cu2199   1.972       .  S
O2191      C2201   1.272       .  A
O2192     Cu2199   1.979       .  S
O2192      C2202   1.273       .  A
O2193     Cu2199   2.031       .  S
O2193      C2203   1.282       .  A
O2194     Cu2199   2.031       .  S
O2194      C2204   1.282       .  A
O2195     Cu2200   1.982       .  S
O2195      C2204   1.273       .  A
O2196     Cu2200   1.982       .  S
O2196      C2203   1.273       .  A
O2197     Cu2200   2.036       .  S
O2197      C2202   1.283       .  A
O2198     Cu2200   2.026       .  S
O2198      C2201   1.282       .  A
Cu2199    Cu2200   2.368       .  S
C2201      C3259   1.477       .  S
C2202      C3209   1.490       .  S
C2203      C3216   1.481       .  S
C2204      C3196   1.485       .  S
O2205     Cu2213   1.969       .  S
O2205      C2215   1.271       .  A
O2206     Cu2213   1.978       .  S
O2206      C2216   1.272       .  A
O2207     Cu2213   2.042       .  S
O2207      C2217   1.284       .  A
O2208     Cu2213   2.041       .  S
O2208      C2218   1.283       .  A
O2209     Cu2214   1.972       .  S
O2209      C2218   1.272       .  A
O2210     Cu2214   1.981       .  S
O2210      C2217   1.272       .  A
O2211     Cu2214   2.035       .  S
O2211      C2216   1.283       .  A
O2212     Cu2214   2.028       .  S
O2212      C2215   1.282       .  A
Cu2213    Cu2214   2.366       .  S
C2215      C3186   1.479       .  S
C2216      C3176   1.487       .  S
C2217      C3246   1.487       .  S
C2218      C3166   1.489       .  S
O2219     Cu2227   1.965       .  S
O2219      C2229   1.271       .  A
O2220     Cu2227   1.976       .  S
O2220      C2230   1.272       .  A
O2221     Cu2227   2.037       .  S
O2221      C2231   1.283       .  A
O2222     Cu2227   2.031       .  S
O2222      C2232   1.282       .  A
O2223     Cu2228   1.970       .  S
O2223      C2232   1.272       .  A
O2224     Cu2228   1.974       .  S
O2224      C2231   1.272       .  A
O2225     Cu2228   2.038       .  S
O2225      C2230   1.283       .  A
O2226     Cu2228   2.033       .  S
O2226      C2229   1.283       .  A
Cu2227    Cu2228   2.365       .  S
C2229      C3189   1.484       .  S
C2230      C3156   1.484       .  S
C2231      C3219   1.489       .  S
C2232      C3149   1.484       .  S
O2233     Cu2241   1.988       .  S
O2233      C2243   1.274       .  A
O2234     Cu2241   1.982       .  S
O2234      C2244   1.273       .  A
O2235     Cu2241   2.030       .  S
O2235      C2245   1.282       .  A
O2236     Cu2241   2.035       .  S
O2236      C2246   1.283       .  A
O2237     Cu2242   1.974       .  S
O2237      C2246   1.272       .  A
O2238     Cu2242   1.974       .  S
O2238      C2245   1.272       .  A
O2239     Cu2242   2.032       .  S
O2239      C2244   1.282       .  A
O2240     Cu2242   2.039       .  S
O2240      C2243   1.283       .  A
Cu2241    Cu2242   2.367       .  S
C2243      C3116   1.494       .  S
C2244      C3136   1.482       .  S
C2245      C3106   1.482       .  S
C2246      C3126   1.483       .  S
O2247     Cu2255   1.980       .  S
O2247      C2257   1.273       .  A
O2248     Cu2255   1.985       .  S
O2248      C2258   1.274       .  A
O2249     Cu2255   2.023       .  S
O2249      C2259   1.281       .  A
O2250     Cu2255   2.022       .  S
O2250      C2260   1.281       .  A
O2251     Cu2256   1.974       .  S
O2251      C2260   1.273       .  A
O2252     Cu2256   1.981       .  S
O2252      C2259   1.273       .  A
O2253     Cu2256   2.036       .  S
O2253      C2258   1.283       .  A
O2254     Cu2256   2.032       .  S
O2254      C2257   1.282       .  A
Cu2255    Cu2256   2.366       .  S
C2257      C3139   1.488       .  S
C2258      C3089   1.487       .  S
C2259      C3096   1.485       .  S
C2260      C3076   1.479       .  S
O2261     Cu2269   1.987       .  S
O2261      C2271   1.274       .  A
O2262     Cu2269   1.981       .  S
O2262      C2272   1.273       .  A
O2263     Cu2269   2.028   1_554  S
O2263      C2273   1.282       .  A
O2264     Cu2269   2.028       .  S
O2264      C2274   1.282       .  A
O2265     Cu2270   1.984       .  S
O2265      C2274   1.273       .  A
O2266     Cu2270   1.978   1_554  S
O2266      C2273   1.273       .  A
O2267     Cu2270   2.032       .  S
O2267      C2272   1.282       .  A
O2268     Cu2270   2.038       .  S
O2268      C2271   1.283       .  A
Cu2269    Cu2270   2.366       .  S
C2271      C3059   1.490       .  S
C2272      C3066   1.486       .  S
C2273      C3046   1.479       .  S
C2274      C3129   1.487       .  S
O2275     Cu2283   1.983       .  S
O2275      C2285   1.273       .  A
O2276     Cu2283   1.979       .  S
O2276      C2286   1.273       .  A
O2277     Cu2283   2.033   1_554  S
O2277      C2287   1.283       .  A
O2278     Cu2283   2.036       .  S
O2278      C2288   1.283       .  A
O2279     Cu2284   1.970       .  S
O2279      C2288   1.271       .  A
O2280     Cu2284   1.966   1_554  S
O2280      C2287   1.271       .  A
O2281     Cu2284   2.033       .  S
O2281      C2286   1.282       .  A
O2282     Cu2284   2.035       .  S
O2282      C2285   1.283       .  A
Cu2283    Cu2284   2.367       .  S
C2285      C3036   1.491       .  S
C2286      C3069   1.478       .  S
C2287      C3026   1.485       .  S
C2288      C3099   1.481       .  S
O2289     Cu2297   2.037       .  S
O2289      C2299   1.283       .  A
O2290     Cu2297   2.045       .  S
O2290      C2300   1.284       .  A
O2291     Cu2297   1.986       .  S
O2291      C2301   1.273       .  A
O2292     Cu2297   1.979       .  S
O2292      C2302   1.273       .  A
O2293     Cu2298   2.031       .  S
O2293      C2302   1.282       .  A
O2294     Cu2298   2.036       .  S
O2294      C2301   1.283       .  A
O2295     Cu2298   1.993       .  S
O2295      C2300   1.274       .  A
O2296     Cu2298   1.985       .  S
O2296      C2299   1.273       .  A
Cu2297    Cu2298   2.365       .  S
C2299      C3019   1.482       .  S
C2300      C2996   1.497       .  S
C2301      C3006   1.492       .  S
C2302      C2986   1.484       .  S
O2303     Cu2311   2.040       .  S
O2303      C2313   1.284       .  A
O2304     Cu2311   2.039       .  S
O2304      C2314   1.283       .  A
O2305     Cu2311   1.984       .  S
O2305      C2315   1.273       .  A
O2306     Cu2311   1.981       .  S
O2306      C2316   1.273       .  A
O2307     Cu2312   2.031       .  S
O2307      C2316   1.282       .  A
O2308     Cu2312   2.032       .  S
O2308      C2315   1.282       .  A
O2309     Cu2312   1.978       .  S
O2309      C2314   1.273       .  A
O2310     Cu2312   1.976       .  S
O2310      C2313   1.272       .  A
Cu2311    Cu2312   2.365       .  S
C2313      C3239   1.490       .  S
C2314      C3016   1.489       .  S
C2315      C2969   1.484       .  S
C2316      C2979   1.486       .  S
O2317     Cu2325   2.034       .  S
O2317      C2327   1.283       .  A
O2318     Cu2325   2.039       .  S
O2318      C2328   1.283       .  A
O2319     Cu2325   1.979       .  S
O2319      C2329   1.273       .  A
O2320     Cu2325   1.975       .  S
O2320      C2330   1.273       .  A
O2321     Cu2326   2.028       .  S
O2321      C2330   1.282       .  A
O2322     Cu2326   2.032       .  S
O2322      C2329   1.283       .  A
O2323     Cu2326   1.984       .  S
O2323      C2328   1.273       .  A
O2324     Cu2326   1.981       .  S
O2324      C2327   1.273       .  A
Cu2325    Cu2326   2.366       .  S
C2327      C2959   1.482       .  S
C2328      C2949   1.491       .  S
C2329      C2976   1.486       .  S
C2330      C2936   1.485       .  S
O2331     Cu2339   2.038       .  S
O2331      C2341   1.283       .  A
O2332     Cu2339   2.046       .  S
O2332      C2342   1.284       .  A
O2333     Cu2339   1.986       .  S
O2333      C2343   1.274       .  A
O2334     Cu2339   1.986       .  S
O2334      C2344   1.273       .  A
O2335     Cu2340   2.029       .  S
O2335      C2344   1.282       .  A
O2336     Cu2340   2.034       .  S
O2336      C2343   1.282       .  A
O2337     Cu2340   1.980       .  S
O2337      C2342   1.273       .  A
O2338     Cu2340   1.978       .  S
O2338      C2341   1.273       .  A
Cu2339    Cu2340   2.367       .  S
C2341      C2956   1.490       .  S
C2342      C3086   1.489       .  S
C2343      C3009   1.484       .  S
C2344      C2929   1.481       .  S
O2345     Cu2353   2.037       .  S
O2345      C2355   1.283       .  A
O2346     Cu2353   2.039       .  S
O2346      C2356   1.284       .  A
O2347     Cu2353   1.981   1_554  S
O2347      C2357   1.273       .  A
O2348     Cu2353   1.977       .  S
O2348      C2358   1.272       .  A
O2349     Cu2354   2.028       .  S
O2349      C2358   1.282       .  A
O2350     Cu2354   2.035   1_554  S
O2350      C2357   1.282       .  A
O2351     Cu2354   1.983       .  S
O2351      C2356   1.273       .  A
O2352     Cu2354   1.978       .  S
O2352      C2355   1.273       .  A
Cu2353    Cu2354   2.365       .  S
C2355      C2916   1.487       .  S
C2356      C3056   1.489       .  S
C2357      C2909   1.490       .  S
C2358      C2899   1.483       .  S
O2359     Cu2367   2.033   1_556  S
O2359      C2369   1.283       .  A
O2360     Cu2367   2.037       .  S
O2360      C2370   1.283       .  A
O2361     Cu2367   1.990       .  S
O2361      C2371   1.274       .  A
O2362     Cu2367   1.981       .  S
O2362      C2372   1.273   1_554  A
O2363     Cu2368   2.036       .  S
O2363      C2372   1.283       .  A
O2364     Cu2368   2.040       .  S
O2364      C2371   1.283   1_556  A
O2365     Cu2368   1.980   1_554  S
O2365      C2370   1.273       .  A
O2366     Cu2368   1.975       .  S
O2366      C2369   1.272       .  A
Cu2367    Cu2368   2.364   1_554  S
C2369      C2869   1.486       .  S
C2370      C2886   1.489       .  S
C2371      C2876   1.494       .  S
C2372      C2919   1.490       .  S
O2373     Cu2381   2.031       .  S
O2373      C2383   1.282       .  A
O2374     Cu2381   2.033       .  S
O2374      C2384   1.283       .  A
O2375     Cu2381   1.979       .  S
O2375      C2385   1.273       .  A
O2376     Cu2381   1.980       .  S
O2376      C2386   1.273       .  A
O2377     Cu2382   2.027       .  S
O2377      C2386   1.282       .  A
O2378     Cu2382   2.036       .  S
O2378      C2385   1.283       .  A
O2379     Cu2382   1.985       .  S
O2379      C2384   1.273       .  A
O2380     Cu2382   1.982       .  S
O2380      C2383   1.273       .  A
Cu2381    Cu2382   2.369       .  S
C2383      C2839   1.483       .  S
C2384      C2906   1.480       .  S
C2385      C2849   1.488       .  S
C2386      C2859   1.481       .  S
O2387     Cu2395   2.033       .  S
O2387      C2397   1.283       .  A
O2388     Cu2395   2.031       .  S
O2388      C2398   1.282       .  A
O2389     Cu2395   1.967       .  S
O2389      C2399   1.271       .  A
O2390     Cu2395   1.976       .  S
O2390      C2400   1.271       .  A
O2391     Cu2396   2.042       .  S
O2391      C2400   1.285       .  A
O2392     Cu2396   2.039       .  S
O2392      C2399   1.283       .  A
O2393     Cu2396   1.982       .  S
O2393      C2398   1.273       .  A
O2394     Cu2396   1.986       .  S
O2394      C2397   1.273       .  A
Cu2395    Cu2396   2.365       .  S
C2397      C2889   1.487       .  S
C2398      C2826   1.486       .  S
C2399      C2856   1.487       .  S
C2400      C3159   1.491       .  S
O2401     Cu2409   1.981       .  S
O2401      C2411   1.273       .  A
O2402      C2412   1.274   1_455  A
O2403     Cu2409   2.038       .  S
O2404      C2414   1.282   1_455  A
O2405     Cu2410   1.981       .  S
O2405      C2414   1.273       .  A
O2406     Cu2410   1.978       .  S
O2406      C2413   1.273   1_655  A
O2407     Cu2410   2.028       .  S
O2407      C2412   1.282       .  A
O2408     Cu2410   2.036       .  S
C2411      C2946   1.490       .  S
C2412      C2819   1.489       .  S
C2414      C2806   1.485       .  S
O2415     Cu2423   1.978       .  S
O2415      C2425   1.273       .  A
O2416     Cu2423   1.982       .  S
O2416      C2426   1.273       .  A
O2417     Cu2423   2.038       .  S
O2417      C2427   1.283       .  A
O2418     Cu2423   2.035       .  S
O2418      C2428   1.282       .  A
O2419     Cu2424   1.979       .  S
O2419      C2428   1.273       .  A
O2420     Cu2424   1.988       .  S
O2420      C2427   1.274       .  A
O2421     Cu2424   2.032       .  S
O2421      C2426   1.283       .  A
O2422     Cu2424   2.031       .  S
O2422      C2425   1.282       .  A
Cu2423    Cu2424   2.365       .  S
C2425      C3199   1.485       .  S
C2426      C2796   1.489       .  S
C2427      C2786   1.492       .  S
C2428      C2816   1.487       .  S
O2429     Cu2437   1.985   1_556  S
O2429      C2439   1.274       .  A
O2430     Cu2437   1.987       .  S
O2430      C2440   1.274       .  A
O2431     Cu2437   2.033       .  S
O2431      C2441   1.282       .  A
O2432     Cu2437   2.043       .  S
O2432      C2442   1.284   1_554  A
O2433     Cu2438   1.985       .  S
O2433      C2442   1.273       .  A
O2434     Cu2438   1.974       .  S
O2434      C2441   1.272   1_556  A
O2435     Cu2438   2.026   1_554  S
O2435      C2440   1.282       .  A
O2436     Cu2438   2.029       .  S
O2436      C2439   1.282       .  A
Cu2437    Cu2438   2.367   1_554  S
C2439      C2809   1.488       .  S
C2440      C3169   1.481       .  S
C2441      C2779   1.476       .  S
C2442      C2766   1.494       .  S
O2443     Cu2451   1.983       .  S
O2443      C2453   1.273   1_556  A
O2444      C2454   1.272   1_455  A
O2445     Cu2451   2.025   1_554  S
O2446      C2456   1.282   1_455  A
O2447     Cu2452   1.982   1_556  S
O2447      C2456   1.273       .  A
O2448     Cu2452   1.978       .  S
O2448      C2455   1.273   1_655  A
O2449     Cu2452   2.031       .  S
O2449      C2454   1.283   1_554  A
O2450     Cu2452   2.037       .  S
C2453      C2879   1.494       .  S
C2454      C2776   1.484   1_556  S
C2456      C2799   1.483       .  S
O2457      C2467   1.283   1_455  A
O2458     Cu2465   2.027       .  S
O2458      C2468   1.282       .  A
O2459      C2469   1.272   1_455  A
O2460     Cu2465   1.977       .  S
O2461     Cu2466   2.042       .  S
O2461      C2470   1.284   1_655  A
O2462     Cu2466   2.035       .  S
O2462      C2469   1.283       .  A
O2463     Cu2466   1.983       .  S
O2464     Cu2466   1.989       .  S
O2464      C2467   1.274       .  A
C2467      C3119   1.494       .  S
C2468      C2756   1.483       .  S
C2469      C2896   1.484       .  S
O2471     Cu2479   2.036       .  S
O2471      C2481   1.283       .  A
O2472     Cu2479   2.030       .  S
O2472      C2482   1.282       .  A
O2473     Cu2479   1.979       .  S
O2473      C2483   1.273       .  A
O2474     Cu2479   1.987       .  S
O2474      C2484   1.274       .  A
O2475     Cu2480   2.030       .  S
O2475      C2484   1.282       .  A
O2476     Cu2480   2.028       .  S
O2476      C2483   1.281       .  A
O2477     Cu2480   1.980       .  S
O2477      C2482   1.273       .  A
O2478     Cu2480   1.986       .  S
O2478      C2481   1.274       .  A
Cu2479    Cu2480   2.365       .  S
C2481      C2789   1.492       .  S
C2482      C2759   1.487       .  S
C2483      C2866   1.480       .  S
C2484      C2739   1.490       .  S
O2485     Cu2493   2.034       .  S
O2485      C2495   1.283       .  A
O2486     Cu2493   2.029       .  S
O2486      C2496   1.282       .  A
O2487     Cu2493   1.971       .  S
O2487      C2497   1.271       .  A
O2488     Cu2493   1.975       .  S
O2488      C2498   1.272       .  A
O2489     Cu2494   2.047       .  S
O2489      C2498   1.284       .  A
O2490     Cu2494   2.038       .  S
O2490      C2497   1.284       .  A
O2491     Cu2494   1.984       .  S
O2491      C2496   1.273       .  A
O2492     Cu2494   1.991       .  S
O2492      C2495   1.274       .  A
Cu2493    Cu2494   2.365       .  S
C2495      C2749   1.489       .  S
C2496      C2836   1.489       .  S
C2497      C2726   1.484       .  S
C2498      C2716   1.491       .  S
O2499     Cu2507   2.029       .  S
O2499      C2509   1.282       .  A
O2500     Cu2507   2.030       .  S
O2501     Cu2507   1.974       .  S
O2501      C2511   1.272       .  A
O2502     Cu2507   1.968       .  S
O2503     Cu2508   2.036       .  S
O2503      C2512   1.283       .  A
O2504      C2511   1.284   1_455  A
O2505     Cu2508   1.989       .  S
O2505      C2510   1.274       .  A
O2506      C2509   1.274   1_455  A
C2509      C2829   1.486       .  S
C2510      C2736   1.486       .  S
C2511      C3206   1.491       .  S
C2512      C2729   1.488       .  S
O2513     Cu2521   1.974       .  S
O2513      C2523   1.272       .  A
O2514     Cu2521   1.970       .  S
O2514      C2524   1.272       .  A
O2515     Cu2521   2.034       .  S
O2515      C2525   1.282       .  A
O2516     Cu2521   2.033       .  S
O2516      C2526   1.283       .  A
O2517     Cu2522   1.988       .  S
O2517      C2526   1.273       .  A
O2518     Cu2522   1.983       .  S
O2518      C2525   1.273       .  A
O2519     Cu2522   2.035       .  S
O2519      C2524   1.283       .  A
O2520     Cu2522   2.039       .  S
O2520      C2523   1.283       .  A
Cu2521    Cu2522   2.365       .  S
C2523      C2699   1.488       .  S
C2524      C3109   1.485       .  S
C2525      C2706   1.487       .  S
C2526      C2719   1.489       .  S
O2527     Cu2535   1.978       .  S
O2528     Cu2535   1.989       .  S
O2528      C2538   1.274       .  A
O2529     Cu2535   2.029       .  S
O2530     Cu2535   2.026       .  S
O2530      C2540   1.282       .  A
O2531     Cu2536   1.974       .  S
O2532     Cu2536   1.982       .  S
O2532      C2539   1.273       .  A
O2533      C2538   1.285       .  A
O2534     Cu2536   2.034       .  S
O2534      C2537   1.283       .  A
C2537      C2709   1.490       .  S
C2538      C2999   1.497       .  S
C2539      C2686   1.487       .  S
C2540      C3079   1.483       .  S
O2541     Cu2549   1.975       .  S
O2542     Cu2549   1.980       .  S
O2542      C2552   1.272       .  A
O2543     Cu2549   2.035       .  S
O2544     Cu2549   2.029       .  S
O2544      C2554   1.282       .  A
O2545     Cu2550   1.982       .  S
O2546     Cu2550   1.990       .  S
O2546      C2553   1.274       .  A
O2547     Cu2550   2.048       .  S
O2548     Cu2550   2.041       .  S
O2548      C2551   1.283       .  A
C2551      C2676   1.485       .  S
C2552      C2846   1.489       .  S
C2553      C2696   1.486       .  S
C2554      C3049   1.487       .  S
O2555     Cu2563   1.976       .  S
O2555      C2565   1.271       .  A
O2556     Cu2563   1.980       .  S
O2556      C2566   1.272       .  A
O2557     Cu2563   2.047       .  S
O2557      C2567   1.285       .  A
O2558     Cu2563   2.039       .  S
O2558      C2568   1.284       .  A
O2559     Cu2564   1.967       .  S
O2559      C2568   1.270       .  A
O2560     Cu2564   1.970       .  S
O2560      C2567   1.271       .  A
O2561     Cu2564   2.048       .  S
O2561      C2566   1.285       .  A
O2562     Cu2564   2.042       .  S
O2562      C2565   1.284       .  A
Cu2563    Cu2564   2.366       .  S
C2565      C2679   1.490       .  S
C2566      C2666   1.487       .  S
C2567      C2689   1.491       .  S
C2568      C3029   1.478       .  S
O2569     Cu2577   2.025       .  S
O2569      C2579   1.281       .  A
O2570     Cu2577   2.032   1_554  S
O2570      C2580   1.282       .  A
O2571     Cu2577   1.989   1_554  S
O2571      C2581   1.274   1_554  A
O2572     Cu2577   1.982       .  S
O2572      C2582   1.273       .  A
O2573     Cu2578   2.039       .  S
O2573      C2582   1.283       .  A
O2574     Cu2578   2.043       .  S
O2574      C2581   1.284       .  A
O2575     Cu2578   1.990   1_554  S
O2575      C2580   1.274       .  A
O2576     Cu2578   1.980       .  S
O2576      C2579   1.273       .  A
Cu2577    Cu2578   2.364       .  S
C2579      C2939   1.481       .  S
C2580      C2646   1.492       .  S
C2581      C2769   1.494       .  S
C2582      C2659   1.491       .  S
O2583     Cu2591   2.042       .  S
O2583      C2593   1.284       .  A
O2584     Cu2591   2.038       .  S
O2584      C2594   1.284       .  A
O2585     Cu2591   1.972       .  S
O2585      C2595   1.271       .  A
O2586     Cu2591   1.976   1_554  S
O2586      C2596   1.272       .  A
O2587     Cu2592   2.042   1_554  S
O2587      C2596   1.284       .  A
O2588     Cu2592   2.040       .  S
O2588      C2595   1.284       .  A
O2589     Cu2592   1.985       .  S
O2589      C2594   1.273       .  A
O2590     Cu2592   1.986       .  S
O2590      C2593   1.273       .  A
Cu2591    Cu2592   2.364       .  S
C2594      C2656   1.491       .  S
C2595      C2926   1.489       .  S
C2596      C2636   1.485       .  S
O2597     Cu2605   2.036       .  S
O2597      C2607   1.283       .  A
O2598     Cu2605   2.042       .  S
O2599     Cu2605   1.987       .  S
O2599      C2609   1.274       .  A
O2600     Cu2605   1.983       .  S
O2600      C2610   1.273       .  A
O2601     Cu2606   2.035       .  S
O2602      C2609   1.283       .  A
O2603     Cu2606   1.977       .  S
O2603      C2608   1.273       .  A
O2604      C2607   1.272       .  A
C2607      C2629   1.482       .  S
C2608      C3179   1.487       .  S
C2609      C2649   1.485       .  S
O2611     Cu2619   2.032       .  S
O2611      C2621   1.283       .  A
O2612     Cu2619   2.037       .  S
O2612      C2622   1.283       .  A
O2613     Cu2619   1.978       .  S
O2613      C2623   1.272       .  A
O2614     Cu2619   1.969       .  S
O2614      C2624   1.271       .  A
O2615     Cu2620   2.043       .  S
O2615      C2624   1.284       .  A
O2616     Cu2620   2.049       .  S
O2616      C2623   1.285       .  A
O2617     Cu2620   1.981       .  S
O2617      C2622   1.273       .  A
O2618     Cu2620   1.979       .  S
O2618      C2621   1.273       .  A
Cu2619    Cu2620   2.365       .  S
C2621      C2989   1.487       .  S
C2622      C2639   1.491       .  S
C2623      C2669   1.487       .  S
C2624      C2626   1.489       .  S
C2625      C2626   1.405       .  A
C2625      C2630   1.398       .  A
C2625      F2632   1.358       .  S
C2626      C2627   1.417       .  A
C2627      C2628   1.398       .  A
C2627      F2634   1.358       .  S
C2628      C2629   1.402       .  A
C2628      F2633   1.358       .  S
C2629      C2630   1.413       .  A
C2630      F2631   1.358       .  S
C2635      C2636   1.403       .  A
C2635      C2640   1.400       .  A
C2635      F2642   1.358       .  S
C2636      C2637   1.412       .  A
C2637      C2638   1.398       .  A
C2637      F2644   1.358       .  S
C2638      C2639   1.406       .  A
C2638      F2643   1.358       .  S
C2639      C2640   1.417       .  A
C2640      F2641   1.358       .  S
C2645      C2646   1.415       .  A
C2645      C2650   1.400       .  A
C2645      F2652   1.358       .  S
C2646      C2647   1.408       .  A
C2647      C2648   1.400       .  A
C2647      F2654   1.358       .  S
C2648      C2649   1.411       .  A
C2648      F2653   1.358       .  S
C2649      C2650   1.403       .  A
C2650      F2651   1.358       .  S
C2655      C2656   1.405       .  A
C2655      C2660   1.398       .  A
C2655      F2662   1.358       .  S
C2656      C2657   1.416       .  A
C2657      C2658   1.401       .  A
C2657      F2664   1.358       .  S
C2658      C2659   1.406       .  A
C2658      F2663   1.358       .  S
C2659      C2660   1.414       .  A
C2660      F2661   1.358       .  S
C2665      C2666   1.414       .  A
C2665      C2670   1.401       .  A
C2665      F2672   1.358       .  S
C2666      C2667   1.403       .  A
C2667      C2668   1.400       .  A
C2667      F2674   1.357       .  S
C2668      C2669   1.414       .  A
C2668      F2673   1.358       .  S
C2669      C2670   1.404       .  A
C2670      F2671   1.358       .  S
C2675      C2676   1.413       .  A
C2675      C2680   1.397       .  A
C2676      C2677   1.404       .  A
C2677      C2678   1.400       .  A
C2677      F2684   1.358       .  S
C2678      C2679   1.418       .  A
C2678      F2683   1.358       .  S
C2679      C2680   1.405       .  A
C2685      F2692   1.358       .  S
C2686      C2687   1.414       .  A
C2687      C2688   1.401       .  A
C2687      F2694   1.358       .  S
C2688      C2689   1.406       .  A
C2688      F2693   1.358       .  S
C2689      C2690   1.417       .  A
C2695      C2696   1.404       .  A
C2695      C2700   1.396       .  A
C2696      C2697   1.414       .  A
C2697      C2698   1.402       .  A
C2697      F2704   1.358       .  S
C2698      C2699   1.406       .  A
C2698      F2703   1.357       .  S
C2699      C2700   1.414       .  A
C2705      C2706   1.405       .  A
C2705      C2710   1.400   1_655  A
C2706      C2707   1.413       .  A
C2707      C2708   1.398       .  A
C2707      F2714   1.358       .  S
C2708      C2709   1.406       .  A
C2708      F2713   1.358       .  S
C2709      C2710   1.416   1_655  A
C2715      C2716   1.414       .  A
C2715      C2720   1.396       .  A
C2715      F2722   1.358       .  S
C2716      C2717   1.407       .  A
C2717      C2718   1.403       .  A
C2717      F2724   1.358       .  S
C2718      C2719   1.415       .  A
C2718      F2723   1.358       .  S
C2719      C2720   1.404       .  A
C2720      F2721   1.358       .  S
C2725      C2730   1.396   1_455  A
C2725      F2732   1.358   1_455  S
C2726      C2727   1.414       .  A
C2727      C2728   1.398       .  A
C2727      F2734   1.358       .  S
C2728      C2729   1.406       .  A
C2728      F2733   1.358       .  S
C2730      F2731   1.358       .  S
C2735      C2740   1.399   1_655  A
C2735      F2742   1.358       .  S
C2736      C2737   1.412       .  A
C2737      C2738   1.399       .  A
C2737      F2744   1.358       .  S
C2738      C2739   1.407       .  A
C2738      F2743   1.358       .  S
C2740      F2741   1.358   1_455  S
C2745      C2746   1.415       .  A
C2745      C2750   1.399       .  A
C2745      F2752   1.358       .  S
C2747      C2748   1.400       .  A
C2747      F2754   1.358       .  S
C2748      F2753   1.358       .  S
C2749      C2750   1.405       .  A
C2750      F2751   1.358       .  S
C2755      C2760   1.399       .  A
C2755      F2762   1.358       .  S
C2756      C2757   1.404       .  A
C2757      C2758   1.397       .  A
C2757      F2764   1.358       .  S
C2758      C2759   1.415       .  A
C2758      F2763   1.358       .  S
C2760      F2761   1.358       .  S
C2765      C2766   1.407   1_554  A
C2765      C2770   1.401   1_565  A
C2765      F2772   1.358       .  S
C2766      C2767   1.415       .  A
C2767      C2768   1.401   1_565  A
C2767      F2774   1.358       .  S
C2768      C2769   1.406       .  A
C2768      F2773   1.357       .  S
C2769      C2770   1.415   1_556  A
C2770      F2771   1.358       .  S
C2775      C2776   1.415   1_456  A
C2775      C2780   1.398       .  A
C2775      F2782   1.358       .  S
C2776      C2777   1.406       .  A
C2777      C2778   1.396       .  A
C2777      F2784   1.358       .  S
C2778      C2779   1.409       .  A
C2778      F2783   1.358       .  S
C2779      C2780   1.402   1_654  A
C2780      F2781   1.358       .  S
C2785      C2786   1.406       .  A
C2785      C2790   1.400       .  A
C2785      F2792   1.357       .  S
C2786      C2787   1.415       .  A
C2787      C2788   1.400       .  A
C2787      F2794   1.358       .  S
C2788      C2789   1.407       .  A
C2788      F2793   1.358       .  S
C2789      C2790   1.414       .  A
C2790      F2791   1.358       .  S
C2795      C2796   1.406       .  A
C2795      C2800   1.398       .  A
C2795      F2802   1.358       .  S
C2796      C2797   1.415   1_655  A
C2797      C2798   1.399       .  A
C2797      F2804   1.358       .  S
C2798      C2799   1.404   1_455  A
C2798      F2803   1.358       .  S
C2799      C2800   1.412       .  A
C2800      F2801   1.358       .  S
C2805      C2806   1.412       .  A
C2805      C2810   1.398       .  A
C2805      F2812   1.358       .  S
C2806      C2807   1.404   1_655  A
C2807      C2808   1.400       .  A
C2808      C2809   1.415   1_455  A
C2809      C2810   1.406       .  A
C2810      F2811   1.357       .  S
C2815      C2816   1.406   1_455  A
C2815      C2820   1.401       .  A
C2815      F2822   1.358       .  S
C2816      C2817   1.413       .  A
C2817      C2818   1.397       .  A
C2817      F2824   1.358       .  S
C2818      C2819   1.406       .  A
C2818      F2823   1.358       .  S
C2819      C2820   1.415   1_655  A
C2825      C2826   1.405   1_455  A
C2825      C2830   1.398       .  A
C2825      F2832   1.358       .  S
C2826      C2827   1.413       .  A
C2827      C2828   1.398       .  A
C2827      F2834   1.358       .  S
C2828      C2829   1.405       .  A
C2828      F2833   1.358       .  S
C2829      C2830   1.413   1_655  A
C2835      C2836   1.407       .  A
C2835      C2840   1.398       .  A
C2835      F2842   1.358       .  S
C2836      C2837   1.415       .  A
C2837      C2838   1.399       .  A
C2837      F2844   1.358       .  S
C2838      C2839   1.404       .  A
C2838      F2843   1.358       .  S
C2839      C2840   1.411       .  A
C2840      F2841   1.358       .  S
C2845      C2846   1.406       .  A
C2845      C2850   1.399       .  A
C2845      F2852   1.358       .  S
C2846      C2847   1.415       .  A
C2847      C2848   1.399       .  A
C2847      F2854   1.358       .  S
C2848      C2849   1.405       .  A
C2848      F2853   1.358       .  S
C2849      C2850   1.414       .  A
C2850      F2851   1.358       .  S
C2855      C2856   1.407       .  A
C2855      C2860   1.400       .  A
C2855      F2862   1.358       .  S
C2856      C2857   1.416       .  A
C2857      C2858   1.395       .  A
C2857      F2864   1.358       .  S
C2858      C2859   1.402       .  A
C2858      F2863   1.358       .  S
C2859      C2860   1.413       .  A
C2860      F2861   1.358       .  S
C2865      C2866   1.403       .  A
C2865      C2870   1.398       .  A
C2865      F2872   1.358       .  S
C2866      C2867   1.411       .  A
C2867      C2868   1.397       .  A
C2867      F2874   1.358       .  S
C2868      C2869   1.406       .  A
C2868      F2873   1.358       .  S
C2869      C2870   1.416       .  A
C2870      F2871   1.358       .  S
C2875      C2876   1.407       .  A
C2875      C2880   1.400   1_554  A
C2875      F2882   1.358   1_554  S
C2876      C2877   1.416       .  A
C2877      C2878   1.401       .  A
C2877      F2884   1.358       .  S
C2878      C2879   1.406       .  A
C2879      C2880   1.415   1_554  A
C2880      F2881   1.358       .  S
C2885      C2886   1.414       .  A
C2885      C2890   1.398       .  A
C2885      F2892   1.358       .  S
C2886      C2887   1.406       .  A
C2887      C2888   1.401       .  A
C2887      F2894   1.357       .  S
C2888      C2889   1.414       .  A
C2888      F2893   1.358       .  S
C2889      C2890   1.404       .  A
C2890      F2891   1.357       .  S
C2895      C2896   1.414   1_455  A
C2895      C2900   1.395       .  A
C2896      C2897   1.405       .  A
C2897      C2898   1.399       .  A
C2897      F2904   1.358       .  S
C2898      C2899   1.414       .  A
C2898      F2903   1.358       .  S
C2899      C2900   1.404   1_655  A
C2900      F2901   1.358       .  S
C2905      C2906   1.410       .  A
C2905      C2910   1.401       .  A
C2905      F2912   1.358       .  S
C2906      C2907   1.402       .  A
C2907      C2908   1.398       .  A
C2907      F2914   1.358       .  S
C2908      C2909   1.415       .  A
C2908      F2913   1.358       .  S
C2909      C2910   1.409       .  A
C2910      F2911   1.358       .  S
C2915      C2916   1.405       .  A
C2915      C2920   1.399       .  A
C2915      F2922   1.358       .  S
C2916      C2917   1.414       .  A
C2917      C2918   1.399       .  A
C2917      F2924   1.358       .  S
C2918      C2919   1.406       .  A
C2918      F2923   1.358       .  S
C2919      C2920   1.415       .  A
C2920      F2921   1.358   1_556  S
C2925      C2926   1.417       .  A
C2925      F2932   1.358       .  S
C2927      C2928   1.400       .  A
C2927      F2934   1.358       .  S
C2928      C2929   1.411       .  A
C2928      F2933   1.358       .  S
C2929      C2930   1.402       .  A
C2935      C2936   1.406       .  A
C2935      C2940   1.398       .  A
C2935      F2942   1.358       .  S
C2936      C2937   1.414       .  A
C2937      C2938   1.396       .  A
C2937      F2944   1.358       .  S
C2938      C2939   1.403       .  A
C2938      F2943   1.358       .  S
C2939      C2940   1.412       .  A
C2940      F2941   1.357       .  S
C2945      C2946   1.405       .  A
C2945      C2950   1.400   1_565  A
C2945      F2952   1.358       .  S
C2946      C2947   1.415       .  A
C2947      C2948   1.400   1_565  A
C2947      F2954   1.358       .  S
C2948      C2949   1.406       .  A
C2948      F2953   1.358       .  S
C2949      C2950   1.414       .  A
C2950      F2951   1.358       .  S
C2955      C2956   1.415       .  A
C2955      C2960   1.397       .  A
C2955      F2962   1.358       .  S
C2956      C2957   1.408       .  A
C2957      C2958   1.401       .  A
C2957      F2964   1.358       .  S
C2958      C2959   1.412       .  A
C2958      F2963   1.358       .  S
C2959      C2960   1.402       .  A
C2960      F2961   1.358       .  S
C2965      C2966   1.407       .  A
C2965      C2970   1.400       .  A
C2965      F2972   1.358       .  S
C2967      F2974   1.358       .  S
C2968      C2969   1.404   1_455  A
C2969      C2970   1.412       .  A
C2970      F2971   1.358       .  S
C2975      C2976   1.414       .  A
C2975      C2980   1.399       .  A
C2975      F2982   1.358       .  S
C2976      C2977   1.405       .  A
C2977      C2978   1.398       .  A
C2977      F2984   1.357       .  S
C2978      C2979   1.413       .  A
C2978      F2983   1.358       .  S
C2979      C2980   1.405       .  A
C2980      F2981   1.357       .  S
C2985      C2986   1.405       .  A
C2985      C2990   1.399       .  A
C2985      F2992   1.358       .  S
C2986      C2987   1.412       .  A
C2987      C2988   1.397       .  A
C2987      F2994   1.358       .  S
C2988      C2989   1.405       .  A
C2988      F2993   1.358       .  S
C2989      C2990   1.415       .  A
C2990      F2991   1.358       .  S
C2995      C2996   1.416       .  A
C2995      C3000   1.403       .  A
C2995      F3002   1.358       .  S
C2996      C2997   1.407       .  A
C2997      C2998   1.402       .  A
C2997      F3004   1.358       .  S
C2998      C2999   1.416       .  A
C2998      F3003   1.358       .  S
C2999      C3000   1.407       .  A
C3000      F3001   1.358       .  S
C3005      C3006   1.407       .  A
C3005      C3010   1.398       .  A
C3005      F3012   1.357       .  S
C3006      C3007   1.417       .  A
C3007      C3008   1.401       .  A
C3007      F3014   1.358       .  S
C3008      C3009   1.404       .  A
C3008      F3013   1.358       .  S
C3009      C3010   1.410       .  A
C3010      F3011   1.358       .  S
C3015      C3016   1.407       .  A
C3015      C3020   1.400       .  A
C3015      F3022   1.358       .  S
C3016      C3017   1.416       .  A
C3017      C3018   1.399       .  A
C3017      F3024   1.358       .  S
C3018      C3019   1.403       .  A
C3018      F3023   1.358       .  S
C3019      C3020   1.411       .  A
C3020      F3021   1.358       .  S
C3025      C3026   1.416       .  A
C3025      C3030   1.396       .  A
C3025      F3032   1.358       .  S
C3026      C3027   1.406       .  A
C3027      C3028   1.398       .  A
C3027      F3034   1.358       .  S
C3028      C3029   1.412       .  A
C3028      F3033   1.358       .  S
C3029      C3030   1.400       .  A
C3030      F3031   1.358       .  S
C3035      C3036   1.415       .  A
C3035      C3040   1.401       .  A
C3035      F3042   1.358       .  S
C3036      C3037   1.405       .  A
C3037      C3038   1.398       .  A
C3037      F3044   1.358       .  S
C3038      C3039   1.415       .  A
C3038      F3043   1.358   1_556  S
C3039      C3040   1.406       .  A
C3045      C3046   1.410       .  A
C3045      C3050   1.397       .  A
C3045      F3052   1.358       .  S
C3046      C3047   1.403       .  A
C3048      F3053   1.358       .  S
C3049      C3050   1.407       .  A
C3050      F3051   1.358       .  S
C3055      C3056   1.404       .  A
C3055      C3060   1.399       .  A
C3055      F3062   1.357       .  S
C3056      C3057   1.415   1_655  A
C3057      F3064   1.358       .  S
C3058      C3059   1.406       .  A
C3058      F3063   1.357   1_556  S
C3060      F3061   1.358       .  S
C3065      C3066   1.415       .  A
C3065      C3070   1.398       .  A
C3065      F3072   1.358       .  S
C3066      C3067   1.407       .  A
C3067      C3068   1.399       .  A
C3067      F3074   1.358   1_556  S
C3068      C3069   1.410       .  A
C3068      F3073   1.358   1_556  S
C3069      C3070   1.402       .  A
C3070      F3071   1.358       .  S
C3075      C3076   1.411       .  A
C3075      C3080   1.396       .  A
C3075      F3082   1.358       .  S
C3076      C3077   1.403       .  A
C3077      C3078   1.396       .  A
C3078      C3079   1.414       .  A
C3079      C3080   1.405       .  A
C3080      F3081   1.358       .  S
C3085      C3090   1.400       .  A
C3085      F3092   1.358       .  S
C3086      C3087   1.405       .  A
C3087      C3088   1.401       .  A
C3087      F3094   1.357       .  S
C3088      F3093   1.358       .  S
C3089      C3090   1.406       .  A
C3090      F3091   1.358       .  S
C3095      C3096   1.406       .  A
C3095      C3100   1.397       .  A
C3095      F3102   1.358       .  S
C3096      C3097   1.415       .  A
C3097      C3098   1.398       .  A
C3097      F3104   1.358       .  S
C3098      C3099   1.402       .  A
C3098      F3103   1.357       .  S
C3099      C3100   1.412       .  A
C3100      F3101   1.358       .  S
C3105      C3106   1.413       .  A
C3105      C3110   1.398       .  A
C3105      F3112   1.358       .  S
C3106      C3107   1.403       .  A
C3107      C3108   1.397       .  A
C3107      F3114   1.358       .  S
C3108      C3109   1.415       .  A
C3108      F3113   1.358       .  S
C3109      C3110   1.405       .  A
C3110      F3111   1.358       .  S
C3115      C3116   1.414       .  A
C3115      C3120   1.400       .  A
C3115      F3122   1.358       .  S
C3116      C3117   1.407       .  A
C3117      C3118   1.401       .  A
C3117      F3124   1.357       .  S
C3118      C3119   1.415       .  A
C3118      F3123   1.358       .  S
C3119      C3120   1.407       .  A
C3120      F3121   1.358   1_655  S
C3125      C3126   1.412       .  A
C3125      C3130   1.396       .  A
C3125      F3132   1.358       .  S
C3126      C3127   1.404       .  A
C3127      C3128   1.400       .  A
C3127      F3134   1.358       .  S
C3128      C3129   1.415       .  A
C3128      F3133   1.358       .  S
C3129      C3130   1.406       .  A
C3130      F3131   1.358       .  S
C3135      C3136   1.403       .  A
C3135      C3140   1.398       .  A
C3135      F3142   1.358       .  S
C3136      C3137   1.411       .  A
C3137      C3138   1.399       .  A
C3137      F3144   1.358       .  S
C3138      C3139   1.407       .  A
C3138      F3143   1.358       .  S
C3139      C3140   1.415       .  A
C3140      F3141   1.358       .  S
C3145      F3152   1.358       .  S
C3146      C3147   1.402       .  A
C3147      C3148   1.396       .  A
C3147      F3154   1.358       .  S
C3148      C3149   1.416       .  A
C3148      F3153   1.358       .  S
C3149      C3150   1.406       .  A
C3155      C3156   1.403       .  A
C3155      F3162   1.357       .  S
C3157      C3158   1.398       .  A
C3157      F3164   1.358       .  S
C3158      C3159   1.404       .  A
C3158      F3163   1.357       .  S
C3159      C3160   1.416   1_655  A
C3160      F3161   1.358       .  S
C3165      C3166   1.416       .  A
C3165      C3170   1.396       .  A
C3165      F3172   1.358       .  S
C3166      C3167   1.407       .  A
C3167      C3168   1.401       .  A
C3167      F3174   1.358       .  S
C3168      C3169   1.411       .  A
C3168      F3173   1.358       .  S
C3169      C3170   1.402       .  A
C3170      F3171   1.358       .  S
C3175      C3176   1.414       .  A
C3175      C3180   1.399   1_565  A
C3175      F3182   1.358       .  S
C3176      C3177   1.405       .  A
C3177      C3178   1.398   1_565  A
C3177      F3184   1.358       .  S
C3178      C3179   1.414       .  A
C3178      F3183   1.358       .  S
C3179      C3180   1.405       .  A
C3180      F3181   1.358   1_655  S
C3185      C3186   1.402       .  A
C3185      C3190   1.395       .  A
C3185      F3192   1.358       .  S
C3186      C3187   1.412       .  A
C3187      C3188   1.397       .  A
C3187      F3194   1.358       .  S
C3188      C3189   1.405       .  A
C3188      F3193   1.358       .  S
C3189      C3190   1.416       .  A
C3190      F3191   1.358       .  S
C3195      C3196   1.405       .  A
C3195      C3200   1.398       .  A
C3195      F3202   1.358       .  S
C3196      C3197   1.413       .  A
C3197      C3198   1.398       .  A
C3197      F3204   1.358       .  S
C3198      C3199   1.405       .  A
C3198      F3203   1.358       .  S
C3199      C3200   1.414       .  A
C3200      F3201   1.358       .  S
C3205      C3206   1.416       .  A
C3205      C3210   1.398       .  A
C3205      F3212   1.358       .  S
C3206      C3207   1.406       .  A
C3207      C3208   1.400       .  A
C3207      F3214   1.358   1_655  S
C3208      C3209   1.415       .  A
C3208      F3213   1.358       .  S
C3209      C3210   1.405       .  A
C3210      F3211   1.358       .  S
C3215      C3216   1.402       .  A
C3215      C3220   1.397       .  A
C3215      F3222   1.358       .  S
C3216      C3217   1.412       .  A
C3217      C3218   1.400       .  A
C3217      F3224   1.358       .  S
C3218      C3219   1.407       .  A
C3218      F3223   1.357       .  S
C3219      C3220   1.416       .  A
C3220      F3221   1.358       .  S
C3225      C3226   1.401       .  A
C3225      C3230   1.395       .  A
C3225      F3232   1.358       .  S
C3227      C3228   1.399       .  A
C3227      F3234   1.358       .  S
C3228      F3233   1.358       .  S
C3229      C3230   1.416       .  A
C3230      F3231   1.358       .  S
C3235      C3240   1.400   1_565  A
C3235      F3242   1.358       .  S
C3236      C3237   1.406       .  A
C3237      C3238   1.397   1_565  A
C3237      F3244   1.358       .  S
C3238      F3243   1.358       .  S
C3239      C3240   1.406       .  A
C3240      F3241   1.357       .  S
C3245      C3246   1.414       .  A
C3245      C3250   1.401       .  A
C3245      F3252   1.358       .  S
C3246      C3247   1.403       .  A
C3247      C3248   1.398       .  A
C3247      F3254   1.357       .  S
C3248      C3249   1.416       .  A
C3248      F3253   1.358       .  S
C3249      C3250   1.405       .  A
C3250      F3251   1.356       .  S
C3255      C3256   1.414       .  A
C3255      C3260   1.397       .  A
C3255      F3262   1.358       .  S
C3256      C3257   1.406       .  A
C3257      C3258   1.395       .  A
C3257      F3264   1.358       .  S
C3258      C3259   1.410       .  A
C3258      F3263   1.358       .  S
C3259      C3260   1.403       .  A
C3260      F3261   1.358       .  S
