geometry optimzed in LAMMPS
_audit_creation_date              2020-12-01 
_audit_creation_method            'lammps2cif' 
_symmetry_space_group_name_H-M    'P1' 
_symmetry_Int_Tables_number       1 
_symmetry_cell_setting            triclinic 
loop_ 
_symmetry_equiv_pos_as_xyz 
  x,y,z 
_cell_length_a                    43.29693266 
_cell_length_b                    32.9275917399403 
_cell_length_c                    43.57303704269385 
_cell_angle_alpha                 89.70322291728124 
_cell_angle_beta                  109.40377704465743 
_cell_angle_gamma                 90.4546694718229 
loop_ 
_atom_site_label 
_atom_site_type_symbol 
_atom_site_fract_x 
_atom_site_fract_y 
_atom_site_fract_z 
_atom_site_charge 
O1          O  0.27342949  0.84989819  0.09562244    -0.85600
O2          O  0.28729275  0.79117657  0.14440027    -0.82600
C3          C  0.28272297  0.75990825  0.12722798     0.97900
O4          O  0.30154586  0.75227026  0.11116456    -0.82700
O5          O  0.34969724  0.76581770  0.08196007    -0.85300
C6          C  0.34195380  0.78734551  0.05656203     1.02400
O7          O  0.33169761  0.82292074  0.05675592    -0.78100
O8          O  0.30590071  0.88753596  0.07838884    -0.78300
C9          C  0.27838099  0.87043313  0.07290817     1.02400
O10         O  0.32157418  0.90171500  0.14158400    -0.85600
O11         O  0.34019046  0.83371010  0.18526117    -0.82600
C12         C  0.35058547  0.79777180  0.19404650     0.97900
O13         O  0.35025966  0.77135462  0.17288675    -0.82700
O14         O  0.39525142  0.78862325  0.14199940    -0.85300
C15         C  0.40895492  0.80887125  0.12524543     1.02400
O16         O  0.39307143  0.83495907  0.10495474    -0.78100
O17         O  0.36703709  0.89790495  0.13078444    -0.78200
C18         C  0.34797392  0.91798798  0.14121779     1.02300
Cr19       Cr  0.30787022  0.84336865  0.14011510     1.93700
Cr20       Cr  0.34790781  0.77363758  0.12647384     1.93200
Cr21       Cr  0.34845797  0.85827633  0.09517165     1.39100
O22         O  0.33545210  0.82500494  0.12101193    -1.23300
O23         O  0.19864863  0.84183169  0.42184503    -0.85600
O24         O  0.18903859  0.77978177  0.37686072    -0.82600
C25         C  0.18910415  0.74823063  0.39322289     0.97900
O26         O  0.16650132  0.74154233  0.40502211    -0.82700
O27         O  0.11274512  0.75904551  0.42447012    -0.85300
C28         C  0.12041262  0.77907163  0.45028833     1.02400
O29         O  0.13278837  0.81399981  0.45183507    -0.78100
O30         O  0.16369892  0.87879631  0.43565017    -0.78300
C31         C  0.19163802  0.86293302  0.44291600     1.02400
O32         O  0.15519243  0.89206826  0.37083903    -0.85600
O33         O  0.14044120  0.82200893  0.32867761    -0.82600
C34         C  0.12966298  0.78605475  0.32016715     0.97900
O35         O  0.12734863  0.76091302  0.34107069    -0.82700
O36         O  0.07597171  0.78362646  0.36198596    -0.85300
C37         C  0.06063497  0.80348079  0.37716536     1.02400
O38         O  0.07579428  0.82853292  0.39878545    -0.78100
O39         O  0.10774490  0.89080382  0.37805602    -0.78200
C40         C  0.12882255  0.90968902  0.36927485     1.02300
Cr41       Cr  0.16821992  0.83323682  0.37567641     1.93700
Cr42       Cr  0.12205446  0.76568947  0.38377943     1.93200
Cr43       Cr  0.12127789  0.85039643  0.41377844     1.39100
O44         O  0.13680599  0.81647043  0.39073342    -1.23300
O45         O  0.40237900  0.64485298  0.44735953    -0.85600
O46         O  0.35494125  0.69783866  0.43720914    -0.82600
C47         C  0.36997929  0.73124551  0.44520407     0.97900
O48         O  0.38386672  0.74848347  0.42721503    -0.82700
O49         O  0.41170303  0.75681966  0.37661453    -0.85300
C50         C  0.44000125  0.74178145  0.38742342     1.02400
O51         O  0.44352054  0.70772344  0.40070584    -0.78100
O52         O  0.43583444  0.63247306  0.42045286    -0.78300
C53         C  0.43031669  0.63515851  0.44740826     1.02400
O54         O  0.36676449  0.59942997  0.39054474    -0.85600
O55         O  0.31805594  0.65929740  0.37764134    -0.82600
C56         C  0.30570214  0.69372376  0.37827735     0.97900
O57         O  0.32326191  0.72535544  0.38081445    -0.82700
O58         O  0.35371762  0.72387466  0.33335549    -0.85300
C59         C  0.37441117  0.71647543  0.31943148     1.02400
O60         O  0.39968562  0.69493053  0.33403204    -0.78100
O61         O  0.39003516  0.61570408  0.35450380    -0.78200
C62         C  0.37636438  0.58975678  0.36715793     1.02300
Cr63       Cr  0.36195638  0.65229339  0.41088198     1.93700
Cr64       Cr  0.36913414  0.73452327  0.38028052     1.93200
Cr65       Cr  0.41442531  0.66385253  0.37793063     1.39100
O66         O  0.38152970  0.68296053  0.38911383    -1.23300
O67         O  0.05518039  0.61662850  0.08016279    -0.85600
O68         O  0.07352170  0.68635346  0.05631486    -0.82600
C69         C  0.08294698  0.72248423  0.05540667     0.97900
O70         O  0.09590064  0.74195646  0.08122930    -0.82700
O71         O  0.05023543  0.75304708  0.11272387    -0.85300
C72         C  0.03208928  0.74358986  0.12925086     1.02400
O73         O  0.03758521  0.71162540  0.14607057    -0.78100
O74         O  0.02397778  0.65074545  0.10049258    -0.78300
C75         C  0.02732665  0.63049083  0.07716034     1.02400
O76         O  0.11886184  0.61058576  0.12756606    -0.85600
O77         O  0.13875398  0.67719596  0.09928012    -0.82600
C78         C  0.15612354  0.70097626  0.12082928     0.97900
O79         O  0.14403327  0.71921137  0.13967939    -0.82700
O80         O  0.10091229  0.73636683  0.17241664    -0.85300
C81         C  0.10355673  0.71007693  0.19419243     1.02400
O82         O  0.09409922  0.67349207  0.18664721    -0.78100
O83         O  0.07728469  0.60355374  0.14506496    -0.78200
C84         C  0.10272800  0.58908539  0.14105773     1.02300
Cr85       Cr  0.09582278  0.65024757  0.09330375     1.93700
Cr86       Cr  0.09669071  0.73332139  0.12610129     1.93200
Cr87       Cr  0.06027482  0.66075596  0.14296254     1.39100
O88         O  0.08489910  0.68138932  0.12133686    -1.23300
O89         O  0.32121341  0.14707318  0.05854522    -0.85600
O90         O  0.37087660  0.19860436  0.06728560    -0.82600
C91         C  0.35549729  0.23134230  0.05942114     0.97900
O92         O  0.34276690  0.24876294  0.07799594    -0.82700
O93         O  0.31740122  0.25777069  0.12948214    -0.85300
C94         C  0.28843881  0.24432128  0.11792340     1.02400
O95         O  0.28351596  0.20840575  0.10807588    -0.78100
O96         O  0.29099147  0.13214263  0.08858603    -0.78300
C97         C  0.29451481  0.13475683  0.06070623     1.02400
O98         O  0.35824323  0.10069923  0.11350660    -0.85600
O99         O  0.40822382  0.15900175  0.12540094    -0.82600
C100        C  0.42161819  0.19337928  0.12626050     0.97900
O101        O  0.40468467  0.22534944  0.12333424    -0.82700
O102        O  0.37610687  0.22444795  0.17198925    -0.85300
C103        C  0.35669465  0.21589138  0.18721926     1.02400
O104        O  0.33036433  0.19575564  0.17311897    -0.78100
O105        O  0.33968167  0.11732480  0.15275612    -0.78200
C106        C  0.35132231  0.09134349  0.13852730     1.02300
Cr107      Cr  0.36329825  0.15339487  0.09348569     1.93700
Cr108      Cr  0.35917111  0.23507578  0.12500923     1.93200
Cr109      Cr  0.31387641  0.16470523  0.12988904     1.39100
O110        O  0.34568307  0.18392667  0.11664459    -1.23300
O111        O  0.16217518  0.14503426  0.44386688    -0.85600
O112        O  0.11275823  0.19727172  0.43396201    -0.82600
C113        C  0.12645567  0.23165550  0.43849920     0.97900
O114        O  0.13835993  0.24730953  0.41844139    -0.82700
O115        O  0.16222216  0.25156003  0.36645134    -0.85300
C116        C  0.19120576  0.23866612  0.37659358     1.02400
O117        O  0.19702436  0.20355592  0.38843739    -0.78100
O118        O  0.19077905  0.12830721  0.41281709    -0.78300
C119        C  0.18836125  0.13210996  0.44109025     1.02400
O120        O  0.12311702  0.09549279  0.39162490    -0.85600
O121        O  0.07334303  0.15360643  0.37902728    -0.82600
C122        C  0.06033577  0.18824554  0.37619385     0.97900
O123        O  0.07712892  0.21980374  0.37636658    -0.82700
O124        O  0.10340420  0.21382466  0.32710071    -0.85300
C125        C  0.12312970  0.20747650  0.31206975     1.02400
O126        O  0.14900414  0.18679574  0.32582034    -0.78100
O127        O  0.14028307  0.10905583  0.35063172    -0.78200
C128        C  0.12923391  0.08421259  0.36665443     1.02300
Cr129      Cr  0.11913628  0.14979420  0.40965259     1.93700
Cr130      Cr  0.12146036  0.22893476  0.37296357     1.93200
Cr131      Cr  0.16648753  0.15813327  0.37027070     1.39100
O132        O  0.13562888  0.17854793  0.38407495    -1.23300
O133        O  0.43931953  0.37269104  0.41517871    -0.85600
O134        O  0.44801647  0.29905236  0.39271774    -0.82600
C135        C  0.44351179  0.26258708  0.38407270     0.97900
O136        O  0.41482884  0.24895813  0.37212707    -0.82700
O137        O  0.38711005  0.25762331  0.42188763    -0.85300
C138        C  0.37183548  0.27363098  0.43887361     1.02400
O139        O  0.35586531  0.30565061  0.42973920    -0.78100
O140        O  0.40652638  0.35742613  0.44261614    -0.78300
C141        C  0.43453229  0.36768398  0.44232931     1.02400
O142        O  0.39245509  0.39261745  0.35030285    -0.85600
O143        O  0.40209823  0.31476310  0.32761811    -0.82600
C144        C  0.37667231  0.29323577  0.31303254     0.97900
O145        O  0.35765100  0.28173486  0.32787609    -0.82700
O146        O  0.32682114  0.27952231  0.37306855    -0.85300
C147        C  0.30847785  0.31023471  0.36859555     1.02400
O148        O  0.32084144  0.34568356  0.37233719    -0.78100
O149        O  0.37071065  0.40551244  0.38789478    -0.78200
C150        C  0.37849077  0.41683388  0.36382210     1.02300
Cr151      Cr  0.41751118  0.34342934  0.37202493     1.93700
Cr152      Cr  0.37276278  0.27125386  0.37468893     1.93200
Cr153      Cr  0.36523647  0.35175708  0.40587735     1.39100
O154        O  0.38487619  0.32273503  0.38344937    -1.23300
O155        O  0.03019344  0.34490592  0.09276291    -0.85600
O156        O  0.04504466  0.28472170  0.13899319    -0.82600
C157        C  0.04269280  0.25225869  0.12323287     0.97900
O158        O  0.06181787  0.24572524  0.10724832    -0.82700
O159        O  0.11005510  0.26333613  0.07841549    -0.85300
C160        C  0.09956648  0.28389744  0.05258212     1.02400
O161        O  0.08632837  0.31762292  0.05274761    -0.78100
O162        O  0.06062829  0.38254654  0.07318001    -0.78300
C163        C  0.03336391  0.36537824  0.06930635     1.02400
O164        O  0.07896476  0.39741783  0.13881956    -0.85600
O165        O  0.09707112  0.32771293  0.18151656    -0.82600
C166        C  0.10735749  0.29164757  0.18973022     0.97900
O167        O  0.10831368  0.26625958  0.16846305    -0.82700
O168        O  0.15376543  0.28839104  0.13922929    -0.85300
C169        C  0.16628477  0.30792529  0.12116997     1.02400
O170        O  0.14897585  0.33170608  0.09947259    -0.78100
O171        O  0.12276573  0.39438845  0.12478562    -0.78200
C172        C  0.10455628  0.41423892  0.13640406     1.02300
Cr173      Cr  0.06508190  0.33815481  0.13646313     1.93700
Cr174      Cr  0.10709609  0.27010925  0.12273351     1.93200
Cr175      Cr  0.10387082  0.35409543  0.09007259     1.39100
O176        O  0.09256480  0.32080748  0.11693284    -1.23300
C177        C  0.46157523  0.37204535  0.47489283    -0.00400
C178        C  0.45408505  0.36350726  0.50352443    -0.12300
C179        C  0.47832996  0.37358715  0.03482013     0.01800
C180        C  0.00628553  0.36750626  0.03660810    -0.00500
C181        C  0.01293605  0.38480361  0.00962715    -0.12200
C182        C  0.49476645  0.38053721  0.47859007     0.01700
H183        H  0.42904819  0.35660444  0.50180890     0.14700
H184        H  0.03679921  0.39830431  0.01315094     0.18700
C185        C  0.50526562  0.38801170  0.45090272     0.36400
C186        C  0.46852817  0.37508812  0.06334896     0.36300
N187        N  0.51396370  0.39367195  0.42882745    -0.44000
N188        N  0.46120327  0.37724217  0.08651530    -0.44000
C189        C  0.11837854  0.22948808  0.28051106    -0.00400
C190        C  0.13946180  0.22114108  0.26291713    -0.12300
C191        C  0.13806322  0.24335098  0.23490220     0.01800
C192        C  0.11512470  0.27523370  0.22347732    -0.00500
C193        C  0.09463859  0.28454220  0.24144310    -0.12200
C194        C  0.09593108  0.26225622  0.26951875     0.01700
H195        H  0.15723486  0.19700224  0.27100579     0.14700
H196        H  0.07644298  0.30814017  0.23269614     0.14700
C197        C  0.07384524  0.27434836  0.28637605     0.36400
C198        C  0.16045398  0.23224269  0.21812216     0.36300
N199        N  0.05616469  0.28419317  0.29984745    -0.44000
N200        N  0.17830885  0.22298133  0.20469295    -0.44000
C201        C  0.12608627  0.25268104  0.46726020    -0.00400
C202        C  0.14003500  0.23153382  0.49629392    -0.12300
C203        C  0.12974911  0.24034073  0.02416806     0.01800
C204        C  0.10650860  0.27094834  0.02309112    -0.00500
C205        C  0.09240677  0.29272581  0.99392567    -0.12200
C206        C  0.10335562  0.28371571  0.46516744     0.01700
H207        H  0.15629273  0.20632250  0.49708912     0.14700
H208        H  0.07482209  0.31650208  0.99264588     0.14700
C209        C  0.08589224  0.30303032  0.43451375     0.36400
C210        C  0.14587976  0.21656332  0.05293424     0.36300
N211        N  0.07163879  0.31804300  0.40984275    -0.44000
N212        N  0.15893386  0.19733219  0.07582153    -0.44000
C213        C  0.21778041  0.26202035  0.37029364    -0.00400
C214        C  0.22811564  0.29982900  0.38509130    -0.12300
C215        C  0.25612361  0.31939211  0.38216397     0.01800
C216        C  0.27336834  0.30153600  0.36322282    -0.00500
C217        C  0.26066003  0.26587588  0.34592409    -0.12200
C218        C  0.23373672  0.24573818  0.34976617     0.01700
H219        H  0.21565928  0.31270080  0.40060341     0.14700
H220        H  0.27371298  0.25154517  0.33155890     0.14700
C221        C  0.22411018  0.20718096  0.33356400     0.36400
C222        C  0.26833396  0.35528518  0.40132615     0.36300
N223        N  0.21685409  0.17615222  0.32073128    -0.44000
N224        N  0.27801475  0.38397693  0.41688078    -0.44000
C225        C  0.02810195  0.19458750  0.37988002    -0.00400
C226        C  0.02828313  0.21426586  0.40849850    -0.12300
C227        C  0.50204426  0.24112964  0.41150727     0.01800
C228        C  0.47206314  0.23682164  0.38587826    -0.00500
C229        C  0.47060415  0.21095154  0.35968024    -0.12200
C230        C  0.99851474  0.19106374  0.35383139     0.01700
H231        H  0.05095109  0.21674534  0.42881707     0.14700
H232        H  0.44766475  0.20723960  0.33987033     0.14700
C233        C  0.99718448  0.17031644  0.32433667     0.36400
C234        C  0.50491778  0.26510183  0.44002594     0.36300
N235        N  0.99617497  0.15349321  0.30076604    -0.44000
N236        N  0.50736069  0.28416327  0.46296205    -0.44000
C237        C  0.36294900  0.23405033  0.22031076    -0.00400
C238        C  0.33638227  0.23921139  0.23159053    -0.12300
C239        C  0.33971892  0.26057616  0.26035095     0.01800
C240        C  0.37058255  0.27689232  0.27944446    -0.00500
C241        C  0.39714497  0.27195549  0.26813685    -0.12200
C242        C  0.39367931  0.25109936  0.23905322     0.01700
H243        H  0.31244231  0.22753393  0.21734768     0.14700
H244        H  0.42109003  0.28345303  0.28255449     0.14700
C245        C  0.42244484  0.24745274  0.22952334     0.36400
C246        C  0.31054836  0.26605995  0.26895390     0.36300
N247        N  0.44558434  0.24492313  0.22198017    -0.44000
N248        N  0.28699550  0.27041492  0.27552213    -0.44000
C249        C  0.37053767  0.25645733  0.46926218    -0.00400
C250        C  0.34176471  0.26366965  0.47664924    -0.12300
C251        C  0.38323580  0.27233745  0.02923943     0.01800
C252        C  0.35590212  0.24903176  0.02920274    -0.00500
C253        C  0.33611490  0.23039599  0.00057393    -0.12200
C254        C  0.39824696  0.24066537  0.49314862     0.01700
H255        H  0.32037537  0.27623030  0.45832488     0.14700
H256        H  0.31573786  0.21129120  0.00099614     0.14700
C257        C  0.42870602  0.23417722  0.48717870     0.36400
C258        C  0.40456485  0.29055137  0.05883529     0.36300
N259        N  0.45315113  0.22888250  0.48249546    -0.44000
N260        N  0.42134173  0.30431277  0.08305905    -0.44000
C261        C  0.01776387  0.22271472  0.12615888    -0.00400
C262        C  0.01190656  0.22180454  0.15611631    -0.12300
C263        C  0.48366108  0.19339305  0.15106778     0.01800
C264        C  0.45499398  0.19724391  0.12400131    -0.00500
C265        C  0.45764467  0.21057255  0.09422004    -0.12200
C266        C  0.48775062  0.22362539  0.09189885     0.01700
H267        H  0.02882826  0.23691092  0.17707437     0.14700
H268        H  0.43571592  0.21294098  0.07303982     0.14700
C269        C  0.48837615  0.24104313  0.06160910     0.36400
C270        C  0.48237309  0.17814818  0.18172344     0.36300
N271        N  0.48888362  0.25509627  0.03737833    -0.44000
N272        N  0.48134493  0.16558271  0.20622263    -0.44000
C273        C  0.26001364  0.26867923  0.11845053    -0.00400
C274        C  0.25654780  0.27807701  0.14861214    -0.12300
C275        C  0.22663082  0.29239952  0.15040239     0.01800
C276        C  0.19996723  0.29871427  0.12158036    -0.00500
C277        C  0.20441731  0.29212719  0.09143884    -0.12200
C278        C  0.23374146  0.27637911  0.08970028     0.01700
H279        H  0.27658263  0.27192652  0.17087448     0.14700
H280        H  0.18414307  0.29683895  0.06905676     0.14700
C281        C  0.23587976  0.26683579  0.05815409     0.36400
C282        C  0.22380102  0.30011667  0.18193424     0.36300
N283        N  0.23756011  0.25904995  0.03288933    -0.44000
N284        N  0.22154068  0.30645088  0.20720179    -0.44000
C285        C  0.26700506  0.12548814  0.02962619    -0.00400
C286        C  0.23478839  0.12140082  0.02993515    -0.12300
C287        C  0.20792312  0.12017706  0.00079769     0.01800
C288        C  0.21668304  0.12336812  0.47183398    -0.00500
C289        C  0.24878015  0.12201210  0.47087330    -0.12200
C290        C  0.27183129  0.12462911  0.99881320     0.01700
H291        H  0.23037187  0.12043969  0.05301161     0.14700
H292        H  0.25263315  0.12310685  0.44752877     0.14700
C293        C  0.30404150  0.12387972  0.99576777     0.36400
C294        C  0.17573350  0.11410118  0.00323220     0.36300
N295        N  0.33369407  0.11680509  0.49314688    -0.44000
N296        N  0.14997608  0.10882877  0.00515600    -0.44000
C297        C  0.11056060  0.54496760  0.14765280    -0.00400
C298        C  0.12828817  0.52533456  0.13032906    -0.12300
C299        C  0.12903215  0.48280659  0.12859997     0.01800
C300        C  0.11113126  0.45853062  0.14395640    -0.00500
C301        C  0.09630922  0.47809847  0.16407567    -0.12200
C302        C  0.09654684  0.52072982  0.16661124     0.01700
H303        H  0.14001262  0.54321102  0.11629016     0.14700
H304        H  0.08375478  0.46010641  0.17727136     0.14700
C305        C  0.08252571  0.53876451  0.18906377     0.36400
C306        C  0.14665987  0.46545675  0.10896839     0.36300
N307        N  0.07178538  0.55325437  0.20743663    -0.44000
N308        N  0.16093572  0.45164862  0.09334300    -0.44000
C309        C  0.37299252  0.46029388  0.35397810    -0.00400
C310        C  0.39828771  0.48287300  0.34839936    -0.12300
C311        C  0.39860816  0.52563140  0.34966139     0.01800
C312        C  0.37313578  0.54647968  0.35652692    -0.00500
C313        C  0.34624749  0.52390503  0.35855649    -0.12200
C314        C  0.34584073  0.48140236  0.35708873     0.01700
H315        H  0.41925955  0.46714258  0.34595532     0.14700
H316        H  0.32615337  0.53944964  0.36301906     0.14700
C317        C  0.31775747  0.46007759  0.36025429     0.36400
C318        C  0.42701550  0.54683385  0.34722813     0.36300
N319        N  0.29518591  0.44311110  0.36271914    -0.44000
N320        N  0.44987491  0.56366433  0.34531580    -0.44000
C321        C  0.45609718  0.62881558  0.48039505    -0.00400
C322        C  0.44666371  0.63250420  0.50848651    -0.12300
C323        C  0.96772157  0.63806710  0.03990699     0.01800
C324        C  0.00012261  0.62518929  0.04519979    -0.00500
C325        C  0.51090320  0.61974199  0.01656335    -0.12200
C326        C  0.48975934  0.62348553  0.48532301     0.01700
H327        H  0.42108538  0.63636147  0.50584069     0.14700
H328        H  0.53669738  0.62054065  0.01920260     0.14700
C329        C  0.50196035  0.62042874  0.45837479     0.36400
C330        C  0.95746569  0.65340867  0.06597993     0.36300
N331        N  0.51189471  0.61809561  0.43685488    -0.44000
N332        N  0.94918144  0.66588853  0.08676719    -0.44000
C333        C  0.12479250  0.95395576  0.36065970    -0.00400
C334        C  0.15142773  0.97531033  0.35631343    -0.12300
C335        C  0.15219290  0.01792345  0.35544008     0.01800
C336        C  0.12576405  0.04032714  0.35853739    -0.00500
C337        C  0.09809138  0.01924223  0.36029351    -0.12200
C338        C  0.09718539  0.97661384  0.36106651     0.01700
H339        H  0.17283547  0.95888364  0.35574722     0.14700
H340        H  0.07763802  0.03626224  0.36263794     0.14700
C341        C  0.06808576  0.95743475  0.36375310     0.36400
C342        C  0.18189394  0.03786966  0.35502845     0.36300
N343        N  0.04469309  0.94220525  0.36586874    -0.44000
N344        N  0.20572739  0.05398116  0.35496612    -0.44000
C345        C  0.12147868  0.76923412  0.28657997    -0.00400
C346        C  0.13992469  0.78037454  0.26682937    -0.12300
C347        C  0.13646064  0.75918487  0.23784916     0.01800
C348        C  0.11436959  0.72572710  0.22815220    -0.00500
C349        C  0.09686657  0.71383430  0.24839945    -0.12200
C350        C  0.09937486  0.73567756  0.27662839     0.01700
H351        H  0.15775014  0.80480883  0.27446645     0.14700
H352        H  0.07950392  0.68885415  0.24107871     0.14700
C353        C  0.07801228  0.72319362  0.29438710     0.36400
C354        C  0.15653808  0.77179832  0.21880587     0.36300
N355        N  0.06086193  0.71279433  0.30842646    -0.44000
N356        N  0.17266722  0.78183333  0.20357305    -0.44000
C357        C  0.08402579  0.74035756  0.02479588    -0.00400
C358        C  0.08214215  0.71404795  0.99913079    -0.12300
C359        C  0.10239907  0.72144088  0.47865579     0.01800
C360        C  0.11094458  0.76286916  0.47727080    -0.00500
C361        C  0.10604857  0.79034473  0.49964335    -0.12200
C362        C  0.09378791  0.78122112  0.02315121     0.01700
H363        H  0.07406859  0.68286935  0.99974455     0.14700
H364        H  0.11114158  0.82243095  0.49796757     0.14700
C365        C  0.09241678  0.81147343  0.04658147     0.36400
C366        C  0.10750147  0.69101533  0.45704661     0.36300
N367        N  0.09124190  0.83583146  0.06520932    -0.44000
N368        N  0.11161188  0.66651238  0.43987632    -0.44000
C369        C  0.21666399  0.72051348  0.39715346    -0.00400
C370        C  0.21527557  0.69477534  0.37093628    -0.12300
C371        C  0.24406691  0.68285951  0.36513615     0.01800
C372        C  0.27456197  0.69796615  0.38522130    -0.00500
C373        C  0.27586030  0.72049618  0.41298248    -0.12200
C374        C  0.24745437  0.73138063  0.41925116     0.01700
H375        H  0.19164640  0.68703288  0.35334471     0.14700
H376        H  0.29915484  0.73154298  0.42916338     0.14700
C377        C  0.25042354  0.75741450  0.44670874     0.36400
C378        C  0.24154649  0.65828666  0.33709569     0.36300
N379        N  0.25302130  0.77820670  0.46877057    -0.44000
N380        N  0.23951479  0.63843165  0.31466194    -0.44000
C381        C  0.02590850  0.79313384  0.37358362    -0.00400
C382        C  0.01312225  0.75617959  0.35870230    -0.12300
C383        C  0.48624278  0.73621623  0.36508656     0.01800
C384        C  0.46807881  0.75987542  0.38000153    -0.00500
C385        C  0.47788203  0.79991180  0.38874588    -0.12200
C386        C  0.50708313  0.81530755  0.38566507     0.01700
H387        H  0.02644586  0.73898887  0.34614166     0.14700
H388        H  0.46381392  0.81832019  0.39984091     0.14700
C389        C  0.51728378  0.85543053  0.39835672     0.36400
C390        C  0.47723686  0.69478542  0.35507974     0.36300
N391        N  0.52530271  0.88736961  0.40915672    -0.44000
N392        N  0.47041542  0.66143941  0.34735063    -0.44000
C393        C  0.35374032  0.96210936  0.14908895    -0.00400
C394        C  0.32836938  0.98442882  0.15452616    -0.12300
C395        C  0.32836966  0.02695949  0.15403108     0.01800
C396        C  0.35452970  0.04822738  0.14871234    -0.00500
C397        C  0.38134058  0.02624217  0.14642624    -0.12200
C398        C  0.38131729  0.98365734  0.14673307     0.01700
H399        H  0.30709230  0.96876421  0.15675248     0.14700
H400        H  0.40163759  0.04244648  0.14251735     0.14700
C401        C  0.40925148  0.96331093  0.14296521     0.36400
C402        C  0.29943724  0.04766278  0.15509224     0.36300
N403        N  0.43170409  0.94714893  0.13994382    -0.44000
N404        N  0.27613896  0.06419508  0.15564867    -0.44000
C405        C  0.36112022  0.78288336  0.22867755    -0.00400
C406        C  0.38169051  0.74852743  0.23688609    -0.12300
C407        C  0.38659618  0.72646786  0.26588195     0.01800
C408        C  0.37055560  0.73818279  0.28781783    -0.00500
C409        C  0.35148258  0.77394991  0.28047163    -0.12200
C410        C  0.34693758  0.79632590  0.25162748     0.01700
H411        H  0.39317739  0.73774804  0.21983157     0.14700
H412        H  0.33973833  0.78461941  0.29733111     0.14700
C413        C  0.32589904  0.83135132  0.24541020     0.36400
C414        C  0.40701541  0.69092452  0.27147317     0.36300
N415        N  0.30900215  0.85940985  0.24053934    -0.44000
N416        N  0.42338156  0.66243389  0.27553688    -0.44000
C417        C  0.36878177  0.74928824  0.47536614    -0.00400
C418        C  0.37305481  0.72255669  0.50145854    -0.12300
C419        C  0.37308959  0.74289915  0.03004120     0.01800
C420        C  0.34837528  0.77212039  0.02740710    -0.00500
C421        C  0.33210829  0.78976104  0.99686554    -0.12200
C422        C  0.35638381  0.78837816  0.47651806     0.01700
H423        H  0.38215019  0.69218091  0.50028929     0.14700
H424        H  0.31343315  0.81244341  0.99447508     0.14700
C425        C  0.35121031  0.81672815  0.44993461     0.36400
C426        C  0.39241708  0.72477856  0.06060077     0.36300
N427        N  0.34716675  0.83954574  0.42869057    -0.44000
N428        N  0.40809249  0.71013448  0.08493815    -0.44000
C429        C  0.44333108  0.79965087  0.12763923    -0.00400
C430        C  0.46400711  0.78266112  0.15652958    -0.12300
C431        C  0.49425203  0.76632733  0.15838261     0.01800
C432        C  0.00391702  0.76873666  0.13003744    -0.00500
C433        C  0.98535807  0.79071906  0.10248697    -0.12200
C434        C  0.45484170  0.80296149  0.10069022     0.01700
H435        H  0.45603028  0.78092258  0.17762649     0.14700
H436        H  0.99375550  0.79311836  0.08169622     0.14700
C437        C  0.43524809  0.82075449  0.07012867     0.36400
C438        C  0.51376711  0.74953491  0.18929390     0.36300
N439        N  0.41968305  0.83502448  0.04558396    -0.44000
N440        N  0.52863100  0.73634930  0.21445641    -0.44000
C441        C  0.19039610  0.70902566  0.12248115    -0.00400
C442        C  0.21389726  0.71720370  0.15271278    -0.12300
C443        C  0.24553808  0.72954149  0.15501079     0.01800
C444        C  0.25423823  0.73438942  0.12654201    -0.00500
C445        C  0.23156212  0.72332782  0.09652181    -0.12200
C446        C  0.19977701  0.71092425  0.09419298     0.01700
H447        H  0.20726660  0.71500730  0.17459948     0.14700
H448        H  0.23774712  0.72761528  0.07454352     0.14700
C449        C  0.17672207  0.70400870  0.06204574     0.36400
C450        C  0.26816532  0.73842500  0.18702363     0.36300
N451        N  0.15859606  0.69859772  0.03608003    -0.44000
N452        N  0.28574064  0.74524930  0.21298200    -0.44000
C453        C  0.25396919  0.87227865  0.03896389    -0.00400
C454        C  0.26603418  0.87597313  0.01264510    -0.12300
C455        C  0.24672196  0.88267995  0.48487342     0.01800
C456        C  0.21463788  0.86725519  0.47710735    -0.00500
C457        C  0.20359280  0.85563533  0.50289505    -0.12200
C458        C  0.21975584  0.86803126  0.03161267     0.01700
H459        H  0.29213636  0.87932413  0.01746314     0.14700
H460        H  0.17879713  0.84451988  0.49752910     0.14700
C461        C  0.20536432  0.86450487  0.05701439     0.36400
C462        C  0.25859563  0.89798316  0.45975791     0.36300
N463        N  0.19367852  0.86162769  0.07727585    -0.44000
N464        N  0.26795377  0.91069446  0.43962135    -0.44000
O465        O  0.27673043  0.84785501  0.59974253    -0.85600
O466        O  0.28958611  0.78670802  0.64578004    -0.82600
C467        C  0.28512183  0.75598386  0.62788195     0.97900
O468        O  0.30399500  0.74928416  0.61168449    -0.82700
O469        O  0.35305961  0.76489556  0.58401250    -0.85300
C470        C  0.34449988  0.78664158  0.55877999     1.02400
O471        O  0.33387729  0.82188445  0.55964421    -0.78100
O472        O  0.30912522  0.88597208  0.58296558    -0.78300
C473        C  0.28156959  0.86894749  0.57730095     1.02400
O474        O  0.32567170  0.89770160  0.64708122    -0.85600
O475        O  0.34315124  0.82717686  0.68845896    -0.82600
C476        C  0.35247816  0.79061735  0.69607553     0.97900
O477        O  0.35176785  0.76528301  0.67411715    -0.82700
O478        O  0.39746193  0.78555458  0.64497039    -0.85300
C479        C  0.41142577  0.80621057  0.62868973     1.02400
O480        O  0.39559876  0.83201591  0.60811562    -0.78100
O481        O  0.37058692  0.89377175  0.63530402    -0.78200
C482        C  0.35203825  0.91385889  0.64634028     1.02300
Cr483      Cr  0.31098088  0.83927123  0.64375537     1.93700
Cr484      Cr  0.35035509  0.77032695  0.62823095     1.93200
Cr485      Cr  0.35129588  0.85581298  0.59882394     1.39100
O486        O  0.33815517  0.82173085  0.62400737    -1.23300
O487        O  0.19503321  0.84369102  0.91760629    -0.85600
O488        O  0.18666764  0.78136332  0.87299042    -0.82600
C489        C  0.18720981  0.74966753  0.88929055     0.97900
O490        O  0.16568659  0.74357695  0.90257804    -0.82700
O491        O  0.11204878  0.75956625  0.92271452    -0.85300
C492        C  0.11702033  0.78128918  0.94737474     1.02400
O493        O  0.12826201  0.81677622  0.94809330    -0.78100
O494        O  0.15971532  0.88037478  0.93113283    -0.78300
C495        C  0.18782139  0.86472056  0.93857426     1.02400
O496        O  0.15168468  0.89351687  0.86618564    -0.85600
O497        O  0.13769352  0.82154205  0.82490330    -0.82600
C498        C  0.12770605  0.78504487  0.81729944     0.97900
O499        O  0.12489901  0.76061908  0.83850474    -0.82700
O500        O  0.07354754  0.78059085  0.86024304    -0.85300
C501        C  0.05768195  0.80099494  0.87456444     1.02400
O502        O  0.07183914  0.82890034  0.89403661    -0.78100
O503        O  0.10398006  0.89142932  0.87264206    -0.78200
C504        C  0.12523615  0.91102698  0.86458001     1.02300
Cr505      Cr  0.16500503  0.83437318  0.87163796     1.93700
Cr506      Cr  0.12044841  0.76571689  0.88156246     1.93200
Cr507      Cr  0.11730116  0.85168745  0.90908615     1.39100
O508        O  0.13369146  0.81726945  0.88697873    -1.23300
O509        O  0.40049959  0.64009146  0.94879145    -0.85600
O510        O  0.35205562  0.69273482  0.93750353    -0.82600
C511        C  0.36585071  0.72712383  0.94373883     0.97900
O512        O  0.38002249  0.74317087  0.92555576    -0.82700
O513        O  0.40959794  0.74840903  0.87628457    -0.85300
C514        C  0.43800154  0.73340214  0.88775143     1.02400
O515        O  0.44136554  0.69947983  0.90135200    -0.78100
O516        O  0.43224804  0.62397653  0.92087194    -0.78300
C517        C  0.42770393  0.62817904  0.94816722     1.02400
O518        O  0.36508114  0.59255788  0.89269879    -0.85600
O519        O  0.31585078  0.65143989  0.87889313    -0.82600
C520        C  0.30290857  0.68587715  0.87742340     0.97900
O521        O  0.32012222  0.71771511  0.87936111    -0.82700
O522        O  0.35140106  0.71394509  0.83285348    -0.85300
C523        C  0.37259990  0.70698934  0.81954621     1.02400
O524        O  0.39823010  0.68668884  0.83485927    -0.78100
O525        O  0.38586050  0.60978565  0.85492474    -0.78200
C526        C  0.37322502  0.58359313  0.86822190     1.02300
Cr527      Cr  0.35978026  0.64607545  0.91227478     1.93700
Cr528      Cr  0.36629710  0.72691063  0.87934831     1.93200
Cr529      Cr  0.41171057  0.65611807  0.87864663     1.39100
O530        O  0.37905728  0.67597474  0.88977641    -1.23300
O531        O  0.05807781  0.61167999  0.58085558    -0.85600
O532        O  0.07604922  0.68190922  0.55747369    -0.82600
C533        C  0.08630724  0.71765528  0.55687269     0.97900
O534        O  0.10036334  0.73649961  0.58281568    -0.82700
O535        O  0.05555619  0.74898320  0.61443743    -0.85300
C536        C  0.03643122  0.73989713  0.62994605     1.02400
O537        O  0.04043679  0.70767134  0.64642894    -0.78100
O538        O  0.02625163  0.64702447  0.59954944    -0.78300
C539        C  0.03027930  0.62634213  0.57669572     1.02400
O540        O  0.12171267  0.60627162  0.62816808    -0.85600
O541        O  0.14147512  0.67177937  0.59900193    -0.82600
C542        C  0.15965791  0.69383289  0.62133001     0.97900
O543        O  0.14816860  0.71126137  0.64100585    -0.82700
O544        O  0.10561700  0.72961502  0.67408254    -0.85300
C545        C  0.10654593  0.70307050  0.69526684     1.02400
O546        O  0.09568589  0.66719402  0.68701259    -0.78100
O547        O  0.07933543  0.59904350  0.64453362    -0.78200
C548        C  0.10550608  0.58506794  0.64173404     1.02300
Cr549      Cr  0.09857602  0.64535514  0.59378873     1.93700
Cr550      Cr  0.10129592  0.72750735  0.62770338     1.93200
Cr551      Cr  0.06236799  0.65608874  0.64278424     1.39100
O552        O  0.08798254  0.67632882  0.62204020    -1.23300
O553        O  0.32736061  0.14267299  0.55993640    -0.85600
O554        O  0.38060202  0.19137481  0.57139211    -0.82600
C555        C  0.36606370  0.22421671  0.56189011     0.97900
O556        O  0.35099101  0.24182584  0.57834076    -0.82700
O557        O  0.32083026  0.25383319  0.62630466    -0.85300
C558        C  0.29202866  0.23943043  0.61529071     1.02400
O559        O  0.28782465  0.20282839  0.60719960    -0.78100
O560        O  0.29720232  0.12654011  0.58983571    -0.78300
C561        C  0.30045039  0.13037084  0.56186908     1.02400
O562        O  0.36178202  0.09528601  0.61574460    -0.85600
O563        O  0.41348711  0.15210043  0.62950899    -0.82600
C564        C  0.42750700  0.18649009  0.63258930     0.97900
O565        O  0.41080795  0.21890064  0.62850092    -0.82700
O566        O  0.37838305  0.22281773  0.67302029    -0.85300
C567        C  0.35823490  0.21509866  0.68748031     1.02400
O568        O  0.33282819  0.19335361  0.67335911    -0.78100
O569        O  0.34466153  0.11396820  0.65542584    -0.78200
C570        C  0.35568890  0.08703133  0.64141984     1.02300
Cr571      Cr  0.36919921  0.14748622  0.59625829     1.93700
Cr572      Cr  0.36411616  0.23039509  0.62574619     1.93200
Cr573      Cr  0.31850612  0.16038994  0.63083504     1.39100
O574        O  0.35094589  0.17912109  0.61829161    -1.23300
O575        O  0.15884493  0.14681545  0.94172287    -0.85600
O576        O  0.10934122  0.19881656  0.93167068    -0.82600
C577        C  0.12357228  0.23281341  0.93785238     0.97900
O578        O  0.13670082  0.24893930  0.91886048    -0.82700
O579        O  0.16283514  0.25469924  0.86807567    -0.85300
C580        C  0.19142943  0.24068806  0.87774569     1.02400
O581        O  0.19652843  0.20503299  0.88852510    -0.78100
O582        O  0.18821428  0.12980311  0.91138983    -0.78300
C583        C  0.18506497  0.13352059  0.93934751     1.02400
O584        O  0.12137946  0.09810420  0.88849605    -0.85600
O585        O  0.07194968  0.15666206  0.87437803    -0.82600
C586        C  0.05908564  0.19128446  0.87208894     0.97900
O587        O  0.07621485  0.22295725  0.87374036    -0.82700
O588        O  0.10472596  0.21970747  0.82604724    -0.85300
C589        C  0.12426975  0.21151792  0.81112195     1.02400
O590        O  0.14953646  0.18995773  0.82506750    -0.78100
O591        O  0.13925056  0.11172485  0.84813317    -0.78200
C592        C  0.12773508  0.08670892  0.86366171     1.02300
Cr593      Cr  0.11673039  0.15213229  0.90667713     1.93700
Cr594      Cr  0.12128811  0.23235301  0.87252144     1.93200
Cr595      Cr  0.16557314  0.16051111  0.86909315     1.39100
O596        O  0.13450416  0.18135645  0.88246825    -1.23300
O597        O  0.43825815  0.37358261  0.91502566    -0.85600
O598        O  0.44761739  0.29869130  0.89509438    -0.82600
C599        C  0.44324080  0.26222381  0.88656011     0.97900
O600        O  0.41467167  0.24802717  0.87507880    -0.82700
O601        O  0.38693715  0.25732113  0.92466654    -0.85300
C602        C  0.37227764  0.27419757  0.94181892     1.02400
O603        O  0.35626799  0.30618650  0.93271604    -0.78100
O604        O  0.40697935  0.35784449  0.94395261    -0.78300
C605        C  0.43436355  0.36927498  0.94269492     1.02400
O606        O  0.39011300  0.38849014  0.84946223    -0.85600
O607        O  0.40163682  0.31077101  0.82933556    -0.82600
C608        C  0.37614711  0.28916743  0.81508513     0.97900
O609        O  0.35702578  0.27918625  0.83022406    -0.82700
O610        O  0.32675648  0.27908532  0.87591589    -0.85300
C611        C  0.30878381  0.31019764  0.87068790     1.02400
O612        O  0.32140026  0.34536895  0.87423193    -0.78100
O613        O  0.37081380  0.40418661  0.88834996    -0.78200
C614        C  0.37667708  0.41344943  0.86280514     1.02300
Cr615      Cr  0.41665273  0.34164993  0.87291857     1.93700
Cr616      Cr  0.37246323  0.26999329  0.87735333     1.93200
Cr617      Cr  0.36549946  0.35143593  0.90766273     1.39100
O618        O  0.38466185  0.32144740  0.88540270    -1.23300
O619        O  0.03433363  0.34774142  0.59020133    -0.85600
O620        O  0.04632655  0.28512158  0.63506207    -0.82600
C621        C  0.04405161  0.25383429  0.61796142     0.97900
O622        O  0.06470541  0.24721545  0.60384433    -0.82700
O623        O  0.11298998  0.26453917  0.57685088    -0.85300
C624        C  0.10241500  0.28522091  0.55116397     1.02400
O625        O  0.09046686  0.31972850  0.55159106    -0.78100
O626        O  0.06684370  0.38554674  0.57313266    -0.78300
C627        C  0.03879541  0.37016866  0.56833028     1.02400
O628        O  0.08368229  0.39650285  0.63811588    -0.85600
O629        O  0.09888761  0.32693346  0.67914431    -0.82600
C630        C  0.10917972  0.29105246  0.68743152     0.97900
O631        O  0.11067455  0.26557598  0.66642182    -0.82700
O632        O  0.15739593  0.28712646  0.63802528    -0.85300
C633        C  0.17027390  0.30586337  0.61983086     1.02400
O634        O  0.15343581  0.33033631  0.59846329    -0.78100
O635        O  0.12851895  0.39296013  0.62572343    -0.78200
C636        C  0.11025085  0.41246832  0.63751940     1.02300
Cr637      Cr  0.06808113  0.33834585  0.63415572     1.93700
Cr638      Cr  0.11018944  0.27021835  0.62089831     1.93200
Cr639      Cr  0.10893993  0.35464358  0.58970683     1.39100
O640        O  0.09623819  0.32104630  0.61543753    -1.23300
C641        C  0.46172081  0.37573392  0.97477722    -0.00400
C642        C  0.45396284  0.37450016  0.00388835    -0.12300
C643        C  0.47833056  0.36191333  0.53448782     0.01800
C644        C  0.01216141  0.37629354  0.53612076    -0.00500
C645        C  0.02059636  0.37978765  0.50759020    -0.12200
C646        C  0.49531313  0.37885129  0.97789777     0.01700
H647        H  0.42854648  0.37361460  0.00264675     0.14700
H648        H  0.04624884  0.38093912  0.50962475     0.18700
C649        C  0.50567964  0.38261991  0.94977157     0.36400
C650        C  0.46826873  0.35131401  0.56196521     0.36300
N651        N  0.51408309  0.38596803  0.92728632    -0.44000
N652        N  0.46014123  0.34261292  0.58391211    -0.44000
C653        C  0.11957338  0.23164473  0.77883840    -0.00400
C654        C  0.14295064  0.22570278  0.76332592    -0.12300
C655        C  0.14134226  0.24686708  0.73476255     0.01800
C656        C  0.11621505  0.27549013  0.72111217    -0.00500
C657        C  0.09323978  0.28220089  0.73672913    -0.12200
C658        C  0.09431471  0.26048414  0.76488675     0.01700
H659        H  0.16262899  0.20434495  0.77342858     0.14700
H660        H  0.07319520  0.30293778  0.72585299     0.14700
C661        C  0.06845082  0.26820223  0.77812741     0.36400
C662        C  0.16574878  0.23842365  0.71973606     0.36300
N663        N  0.04757678  0.27443273  0.78851878    -0.44000
N664        N  0.18518030  0.23152781  0.70758961    -0.44000
C665        C  0.12278439  0.25267027  0.96732533    -0.00400
C666        C  0.13766653  0.23184675  0.99644029    -0.12300
C667        C  0.13062083  0.23926943  0.52306460     0.01800
C668        C  0.10850922  0.27134266  0.52174374    -0.00500
C669        C  0.09532564  0.29352732  0.49267348    -0.12200
C670        C  0.10015434  0.28359007  0.96605373     0.01700
H671        H  0.15433521  0.20718057  0.99697586     0.14700
H672        H  0.07808916  0.31778474  0.49113023     0.14700
C673        C  0.08295160  0.30433115  0.93600841     0.36400
C674        C  0.14354040  0.21263018  0.55081500     0.36300
N675        N  0.06891335  0.32090941  0.91199106    -0.44000
N676        N  0.15388968  0.19106468  0.57285625    -0.44000
C677        C  0.21828532  0.26357474  0.87184936    -0.00400
C678        C  0.22854100  0.30150029  0.88648137    -0.12300
C679        C  0.25649359  0.32090021  0.88340808     0.01800
C680        C  0.27361358  0.30263999  0.86459619    -0.00500
C681        C  0.26071679  0.26733435  0.84707972    -0.12200
C682        C  0.23401332  0.24720379  0.85116588     0.01700
H683        H  0.21604434  0.31460183  0.90187845     0.14700
H684        H  0.27366505  0.25311179  0.83259821     0.14700
C685        C  0.22457156  0.20851874  0.83513912     0.36400
C686        C  0.26870481  0.35721584  0.90203060     0.36300
N687        N  0.21764413  0.17735736  0.82245220    -0.44000
N688        N  0.27851585  0.38633562  0.91696342    -0.44000
C689        C  0.02709869  0.19698554  0.87627942    -0.00400
C690        C  0.02773331  0.21727168  0.90473174    -0.12300
C691        C  0.50122822  0.23927399  0.91331486     0.01800
C692        C  0.47164035  0.23752308  0.88700114    -0.00500
C693        C  0.47061595  0.21665999  0.85852685    -0.12200
C694        C  0.99694624  0.19006623  0.85163306     0.01700
H695        H  0.05080969  0.22217385  0.92401077     0.14700
H696        H  0.44801026  0.21576434  0.83800200     0.14700
C697        C  0.99527173  0.16899655  0.82216422     0.36400
C698        C  0.50353312  0.25941673  0.94340923     0.36300
N699        N  0.99390348  0.15202044  0.79855105    -0.44000
N700        N  0.50546062  0.27551010  0.96753498    -0.44000
C701        C  0.36340633  0.23434150  0.72019687    -0.00400
C702        C  0.34144182  0.22538543  0.73680629    -0.12300
C703        C  0.34411890  0.24389564  0.76661445     0.01800
C704        C  0.36983233  0.27220247  0.78138726    -0.00500
C705        C  0.39141542  0.28181991  0.76443853    -0.12200
C706        C  0.38825882  0.26398075  0.73422135     0.01700
H707        H  0.32171661  0.20381142  0.72635237     0.14700
H708        H  0.41101787  0.30357612  0.77480444     0.14700
C709        C  0.41035782  0.27844378  0.71795092     0.36400
C710        C  0.31982668  0.23236680  0.78110505     0.36300
N711        N  0.42791341  0.29078867  0.70499501    -0.44000
N712        N  0.30006349  0.22254780  0.79217806    -0.44000
C713        C  0.37109443  0.25738860  0.97205028    -0.00400
C714        C  0.39065742  0.27646476  0.00063857    -0.12300
C715        C  0.34046540  0.25655129  0.50757636     0.01800
C716        C  0.36792266  0.24024360  0.53136459    -0.00500
C717        C  0.39665489  0.23251566  0.52396579    -0.12200
C718        C  0.34342931  0.23456064  0.97192293     0.01700
H719        H  0.41098633  0.29571965  0.00027271     0.14700
H720        H  0.41792016  0.21987203  0.54236006     0.14700
C721        C  0.32182383  0.21616457  0.94248438     0.36400
C722        C  0.31069638  0.26593326  0.51397476     0.36300
N723        N  0.30451603  0.20144336  0.91891368    -0.44000
N724        N  0.28687906  0.27419727  0.51893007    -0.44000
C725        C  0.01682009  0.22554353  0.61581436    -0.00400
C726        C  0.01588843  0.20653449  0.64449773    -0.12300
C727        C  0.48500285  0.21007488  0.66235419     0.01800
C728        C  0.46255092  0.19039962  0.63551236    -0.00500
C729        C  0.47155528  0.18364915  0.60768451    -0.12200
C730        C  0.50093048  0.19983667  0.60519497     0.01700
H731        H  0.03744704  0.20729930  0.66596558     0.14700
H732        H  0.45446044  0.16842025  0.58687933     0.14700
C733        C  0.50813521  0.19408052  0.57549793     0.36400
C734        C  0.47831350  0.21486431  0.69244056     0.36300
N735        N  0.51412329  0.18918744  0.55180539    -0.44000
N736        N  0.47342001  0.21819845  0.71684289    -0.44000
C737        C  0.26289501  0.26348383  0.61486728    -0.00400
C738        C  0.26150131  0.27965527  0.64428417    -0.12300
C739        C  0.23183911  0.29424969  0.64676360     0.01800
C740        C  0.20329791  0.29455061  0.61913941    -0.00500
C741        C  0.20542977  0.28117464  0.58934370    -0.12200
C742        C  0.23427676  0.26429297  0.58723667     0.01700
H743        H  0.28308998  0.27850000  0.66587563     0.14700
H744        H  0.18380458  0.28184069  0.56783583     0.14700
C745        C  0.23319102  0.24607888  0.55680535     0.36400
C746        C  0.23121684  0.30875757  0.67771754     0.36300
N747        N  0.23167587  0.23101550  0.53240375    -0.44000
N748        N  0.23070109  0.32051696  0.70252178    -0.44000
C749        C  0.27223387  0.12251925  0.53079170    -0.00400
C750        C  0.24011409  0.12034925  0.53168261    -0.12300
C751        C  0.21269943  0.12022119  0.50294019     0.01800
C752        C  0.21271361  0.12453816  0.97017588    -0.00500
C753        C  0.24494776  0.12483617  0.96979333    -0.12200
C754        C  0.27621749  0.12113445  0.49963894     0.01700
H755        H  0.23621255  0.12014938  0.55501524     0.14700
H756        H  0.24930339  0.12684951  0.94671117     0.14700
C757        C  0.30815902  0.11888630  0.49610499     0.36400
C758        C  0.18076500  0.11672587  0.50646087     0.36300
N759        N  0.32978407  0.12314260  0.99317860    -0.44000
N760        N  0.15524608  0.11364908  0.50940438    -0.44000
C761        C  0.11436871  0.54170139  0.64995228    -0.00400
C762        C  0.13609544  0.52297139  0.63661493    -0.12300
C763        C  0.13792597  0.48055300  0.63520928     0.01800
C764        C  0.11738747  0.45586512  0.64709507    -0.00500
C765        C  0.09919991  0.47461233  0.66439061    -0.12200
C766        C  0.09779250  0.51698212  0.66623019     0.01700
H767        H  0.14999899  0.54134860  0.62503427     0.14700
H768        H  0.08450067  0.45617122  0.67503812     0.14700
C769        C  0.07810757  0.53400302  0.68394773     0.36400
C770        C  0.15927380  0.46374961  0.61920520     0.36300
N771        N  0.06240059  0.54762532  0.69822351    -0.44000
N772        N  0.17646663  0.45038283  0.60644344    -0.44000
C773        C  0.37053244  0.45579877  0.85143400    -0.00400
C774        C  0.39697884  0.47875612  0.84902451    -0.12300
C775        C  0.39722392  0.52112850  0.85181630     0.01800
C776        C  0.37048013  0.54098897  0.85698544    -0.00500
C777        C  0.34250347  0.51828253  0.85554482    -0.12200
C778        C  0.34215664  0.47599010  0.85224584     0.01700
H779        H  0.41887953  0.46342938  0.84847288     0.14700
H780        H  0.32148479  0.53338742  0.85847070     0.14700
C781        C  0.31291699  0.45364025  0.85099858     0.36400
C782        C  0.42684798  0.54267459  0.85326663     0.36300
N783        N  0.28935009  0.43577925  0.84956869    -0.44000
N784        N  0.45073210  0.55967561  0.85454569    -0.44000
C785        C  0.45388014  0.62080635  0.98058573    -0.00400
C786        C  0.44459222  0.61932416  0.00885841    -0.12300
C787        C  0.97075777  0.61953804  0.53910957     0.01800
C788        C  0.00448142  0.62219783  0.54383047    -0.00500
C789        C  0.51258867  0.62264832  0.51715540    -0.12200
C790        C  0.48771942  0.62022743  0.98495226     0.01700
H791        H  0.41885237  0.61915994  0.00645079     0.14700
H792        H  0.53830498  0.61935442  0.52006725     0.14700
C793        C  0.49960308  0.62277708  0.95772310     0.36400
C794        C  0.95900878  0.61557051  0.56634462     0.36300
N795        N  0.50927729  0.62502098  0.93599533    -0.44000
N796        N  0.94957798  0.61204368  0.58815472    -0.44000
C797        C  0.12109023  0.95578215  0.85667469    -0.00400
C798        C  0.14481469  0.97678903  0.84678508    -0.12300
C799        C  0.14575076  0.01966175  0.84564751     0.01800
C800        C  0.12292380  0.04265857  0.85499540    -0.00500
C801        C  0.09772267  0.02178979  0.86209297    -0.12200
C802        C  0.09640469  0.97924282  0.86277672     0.01700
H803        H  0.16371880  0.95980701  0.84137187     0.14700
H804        H  0.07964461  0.03898162  0.86877453     0.14700
C805        C  0.07021671  0.96123300  0.87176538     0.36400
C806        C  0.17173146  0.03916296  0.83706000     0.36300
N807        N  0.04891804  0.94755423  0.87895735    -0.44000
N808        N  0.19244201  0.05486960  0.83001614    -0.44000
C809        C  0.12122077  0.76649386  0.78462058    -0.00400
C810        C  0.14332421  0.77244198  0.76769808    -0.12300
C811        C  0.14128144  0.74865931  0.74031072     0.01800
C812        C  0.11684148  0.71798085  0.72934727    -0.00500
C813        C  0.09611833  0.71044846  0.74738569    -0.12200
C814        C  0.09750125  0.73479650  0.77412111     0.01700
H815        H  0.16277893  0.79479225  0.77639345     0.14700
H816        H  0.07669159  0.68801221  0.73879206     0.14700
C817        C  0.07269773  0.72803437  0.78911852     0.36400
C818        C  0.16497114  0.75580574  0.72406600     0.36300
N819        N  0.05260950  0.72261265  0.80081017    -0.44000
N820        N  0.18410110  0.76146390  0.71121292    -0.44000
C821        C  0.08764077  0.73524364  0.52648971    -0.00400
C822        C  0.09025570  0.70830790  0.50277862    -0.12300
C823        C  0.09303244  0.72631445  0.97385597     0.01800
C824        C  0.10624244  0.76602122  0.97405164    -0.00500
C825        C  0.10533629  0.79335447  0.99828135    -0.12200
C826        C  0.09435926  0.77700111  0.52408702     0.01700
H827        H  0.08544901  0.67615439  0.50459460     0.14700
H828        H  0.11344274  0.82452948  0.99777436     0.14700
C829        C  0.09011717  0.80671445  0.54665324     0.36400
C830        C  0.09077517  0.69676226  0.94875752     0.36300
N831        N  0.08688218  0.83050215  0.56479280    -0.44000
N832        N  0.08869465  0.67304646  0.92864093    -0.44000
C833        C  0.21290859  0.72004450  0.89024380    -0.00400
C834        C  0.21214135  0.70263653  0.86046936    -0.12300
C835        C  0.24074437  0.68755552  0.85618460     0.01800
C836        C  0.27065244  0.69027014  0.88188784    -0.00500
C837        C  0.27065895  0.70401954  0.91243688    -0.12200
C838        C  0.24221990  0.71902156  0.91675765     0.01700
H839        H  0.18969668  0.70387624  0.83973927     0.14700
H840        H  0.29346994  0.70579300  0.93257810     0.14700
C841        C  0.24462524  0.73729413  0.94753949     0.36400
C842        C  0.23923377  0.67218147  0.82476417     0.36300
N843        N  0.24674314  0.75201532  0.97222422    -0.44000
N844        N  0.23787786  0.65961828  0.79958743    -0.44000
C845        C  0.02374042  0.78822333  0.87272149    -0.00400
C846        C  0.01433579  0.74775936  0.86433716    -0.12300
C847        C  0.48688420  0.72739857  0.86896273     0.01800
C848        C  0.46659680  0.75157864  0.88107616    -0.00500
C849        C  0.47431612  0.79269873  0.88706958    -0.12200
C850        C  0.50322353  0.80907217  0.88392977     0.01700
H851        H  0.02974455  0.72840445  0.85556832     0.14700
H852        H  0.45848988  0.81166489  0.89560409     0.14700
C853        C  0.51009620  0.85121726  0.89210523     0.36400
C854        C  0.47916959  0.68536836  0.86008342     0.36300
N855        N  0.51473403  0.88511489  0.89895027    -0.44000
N856        N  0.47311047  0.65171834  0.85289560    -0.44000
C857        C  0.35846007  0.95796958  0.65422630    -0.00400
C858        C  0.33415300  0.98072112  0.66122790    -0.12300
C859        C  0.33423338  0.02332620  0.66019215     0.01800
C860        C  0.35936817  0.04418393  0.65263853    -0.00500
C861        C  0.38543985  0.02178026  0.64908735    -0.12200
C862        C  0.38534682  0.97921400  0.64989515     0.01700
H863        H  0.31350497  0.96529390  0.66503718     0.14700
H864        H  0.40505373  0.03761688  0.64358019     0.14700
C865        C  0.41222860  0.95862460  0.64410422     0.36400
C866        C  0.30625893  0.04447145  0.66312227     0.36300
N867        N  0.43377636  0.94230513  0.63934243    -0.44000
N868        N  0.28372045  0.06138660  0.66522006    -0.44000
C869        C  0.36186129  0.77386416  0.73004836    -0.00400
C870        C  0.37982103  0.73720823  0.73698708    -0.12300
C871        C  0.38349794  0.71458444  0.76546508     0.01800
C872        C  0.36923745  0.72843610  0.78819689    -0.00500
C873        C  0.35248965  0.76585659  0.78195859    -0.12200
C874        C  0.34878731  0.78847465  0.75349339     0.01700
H875        H  0.39006228  0.72513864  0.71936208     0.14700
H876        H  0.34187984  0.77759224  0.79939935     0.14700
C877        C  0.32921556  0.82476279  0.74796789     0.36400
C878        C  0.40030164  0.67617735  0.76969232     0.36300
N879        N  0.31330338  0.85368510  0.74353580    -0.44000
N880        N  0.41358326  0.64527789  0.77289442    -0.44000
C881        C  0.36335430  0.74807892  0.97213813    -0.00400
C882        C  0.38009013  0.73116962  0.00244680    -0.12300
C883        C  0.36415446  0.73325565  0.52812085     0.01800
C884        C  0.35083604  0.77219301  0.52931605    -0.00500
C885        C  0.34745500  0.79953191  0.50338933    -0.12200
C886        C  0.33926812  0.77770688  0.96921372     0.01700
H887        H  0.39810593  0.70768968  0.00435266     0.14700
H888        H  0.33792739  0.82975550  0.50406486     0.14700
C889        C  0.32052853  0.79434177  0.93787601     0.36400
C890        C  0.36865906  0.70286242  0.55327771     0.36300
N891        N  0.30552957  0.80734085  0.91263769    -0.44000
N892        N  0.37240285  0.67836875  0.57331363    -0.44000
C893        C  0.44608519  0.79786125  0.63206381    -0.00400
C894        C  0.46550783  0.77863838  0.66042936    -0.12300
C895        C  0.49582343  0.76244188  0.66273143     0.01800
C896        C  0.00835677  0.76558855  0.62926211    -0.00500
C897        C  0.98625731  0.77844312  0.59947087    -0.12200
C898        C  0.45907641  0.80404182  0.60639359     0.01700
H899        H  0.45621537  0.77437065  0.68050466     0.14700
H900        H  0.99246862  0.77513817  0.57746070     0.14700
C901        C  0.44041470  0.82328518  0.57612166     0.36400
C902        C  0.51250076  0.74061749  0.69222826     0.36300
N903        N  0.42549316  0.83859600  0.55179722    -0.44000
N904        N  0.52428174  0.72282714  0.71613119    -0.44000
C905        C  0.19402109  0.70123294  0.62297221    -0.00400
C906        C  0.21709982  0.71067082  0.65310849    -0.12300
C907        C  0.24842741  0.72406117  0.65546037     0.01800
C908        C  0.25712032  0.72941943  0.62706011    -0.00500
C909        C  0.23524230  0.71627539  0.59720542    -0.12200
C910        C  0.20393361  0.70181592  0.59493603     0.01700
H911        H  0.21038517  0.70850970  0.67492954     0.14700
H912        H  0.24170251  0.71988448  0.57532862     0.14700
C913        C  0.18217883  0.69009762  0.56319949     0.36400
C914        C  0.27080762  0.73290541  0.68755525     0.36300
N915        N  0.16515911  0.68029815  0.53768870    -0.44000
N916        N  0.28808048  0.73935538  0.71369672    -0.44000
C917        C  0.25682898  0.87132579  0.54350698    -0.00400
C918        C  0.26731207  0.88474838  0.51761388    -0.12300
C919        C  0.24526378  0.87389787  0.98004540     0.01800
C920        C  0.21115899  0.86950773  0.97269309    -0.00500
C921        C  0.19883776  0.86743962  0.99890102    -0.12200
C922        C  0.22418987  0.85706050  0.53559615     0.01700
H923        H  0.29209470  0.89604015  0.52277004     0.14700
H924        H  0.17269970  0.86400342  0.99385533     0.14700
C925        C  0.21099599  0.84346682  0.56031389     0.36400
C926        C  0.25957034  0.87714637  0.95458560     0.36300
N927        N  0.20030916  0.83251016  0.58002357    -0.44000
N928        N  0.27101717  0.87991123  0.93415094    -0.44000
O929        O  0.77275914  0.84864570  0.09800066    -0.85600
O930        O  0.78684577  0.78788994  0.14448456    -0.82600
C931        C  0.78279254  0.75622123  0.12772941     0.97900
O932        O  0.80141747  0.74908600  0.11128775    -0.82700
O933        O  0.84839753  0.76568526  0.08100924    -0.85300
C934        C  0.83826429  0.78694721  0.05554278     1.02400
O935        O  0.82863626  0.82270430  0.05660478    -0.78100
O936        O  0.80483959  0.88717011  0.08118905    -0.78300
C937        C  0.77746013  0.86985643  0.07556144     1.02400
O938        O  0.82249482  0.89869673  0.14489178    -0.85600
O939        O  0.84046563  0.82867065  0.18635620    -0.82600
C940        C  0.85039579  0.79233977  0.19401133     0.97900
O941        O  0.85037228  0.76739168  0.17205494    -0.82700
O942        O  0.89449819  0.78808651  0.14098354    -0.85300
C943        C  0.90765652  0.80859133  0.12388982     1.02400
O944        O  0.89103996  0.83366584  0.10317788    -0.78100
O945        O  0.86685984  0.89507793  0.13194819    -0.78200
C946        C  0.84884804  0.91474375  0.14400900     1.02300
Cr947      Cr  0.80781482  0.84036236  0.14176356     1.93700
Cr948      Cr  0.84749865  0.77171165  0.12586272     1.93200
Cr949      Cr  0.84687789  0.85700298  0.09558677     1.39100
O950        O  0.83460168  0.82286954  0.12142983    -1.23300
O951        O  0.69881013  0.83920425  0.41977158    -0.85600
O952        O  0.68908086  0.77642094  0.37587445    -0.82600
C953        C  0.68976561  0.74546267  0.39308496     0.97900
O954        O  0.66800307  0.73973063  0.40615831    -0.82700
O955        O  0.61374047  0.75712764  0.42546553    -0.85300
C956        C  0.61965876  0.77918711  0.45012032     1.02400
O957        O  0.63268772  0.81357390  0.45082565    -0.78100
O958        O  0.66413214  0.87669086  0.43355366    -0.78300
C959        C  0.69194522  0.86032914  0.44086484     1.02400
O960        O  0.65512960  0.88923585  0.36838897    -0.85600
O961        O  0.63988087  0.81752081  0.32772307    -0.82600
C962        C  0.62978510  0.78112201  0.32012634     0.97900
O963        O  0.62817898  0.75639725  0.34164545    -0.82700
O964        O  0.57685248  0.77910534  0.36227327    -0.85300
C965        C  0.56122745  0.80041513  0.37626310     1.02400
O966        O  0.57602956  0.82658280  0.39706714    -0.78100
O967        O  0.60775946  0.88777922  0.37555936    -0.78200
C968        C  0.62858314  0.90672906  0.36651059     1.02300
Cr969      Cr  0.66814972  0.83001037  0.37409928     1.93700
Cr970      Cr  0.62312286  0.76248030  0.38447581     1.93200
Cr971      Cr  0.62145561  0.84850159  0.41206365     1.39100
O972        O  0.63712810  0.81367516  0.38987286    -1.23300
O973        O  0.90393136  0.64166562  0.44776969    -0.85600
O974        O  0.85631317  0.69450834  0.43816433    -0.82600
C975        C  0.87083509  0.72831306  0.44523441     0.97900
O976        O  0.88468887  0.74515782  0.42716900    -0.82700
O977        O  0.91137524  0.75375335  0.37631911    -0.85300
C978        C  0.93994340  0.73932152  0.38667178     1.02400
O979        O  0.94420650  0.70465116  0.39909059    -0.78100
O980        O  0.93639750  0.62920823  0.41971015    -0.78300
C981        C  0.93146322  0.63141340  0.44698454     1.02400
O982        O  0.86770173  0.59594199  0.39148476    -0.85600
O983        O  0.81903426  0.65537776  0.37893946    -0.82600
C984        C  0.80628214  0.68954287  0.37939008     0.97900
O985        O  0.82347822  0.72152094  0.38200142    -0.82700
O986        O  0.85286129  0.72060443  0.33382624    -0.85300
C987        C  0.87298019  0.71239788  0.31947845     1.02400
O988        O  0.89851281  0.69126683  0.33369724    -0.78100
O989        O  0.88919790  0.61304156  0.35429973    -0.78200
C990        C  0.87630315  0.58680307  0.36738671     1.02300
Cr991      Cr  0.86310862  0.64890729  0.41179473     1.93700
Cr992      Cr  0.86914959  0.73113315  0.38060586     1.93200
Cr993      Cr  0.91431763  0.66068659  0.37739404     1.39100
O994        O  0.88202817  0.67976423  0.38950184    -1.23300
O995        O  0.55560828  0.61178218  0.08113421    -0.85600
O996        O  0.57466013  0.68060290  0.05736218    -0.82600
C997        C  0.58416638  0.71658384  0.05624718     0.97900
O998        O  0.59639530  0.73689274  0.08180947    -0.82700
O999        O  0.55076194  0.74905999  0.11347283    -0.85300
C1000       C  0.53234580  0.74002647  0.12985562     1.02400
O1001       O  0.53715835  0.70781095  0.14634905    -0.78100
O1002       O  0.52354033  0.64685023  0.09992537    -0.78300
C1003       C  0.52766128  0.62602529  0.07717487     1.02400
O1004       O  0.61895643  0.60626124  0.12958490    -0.85600
O1005       O  0.63952893  0.67143878  0.10078325    -0.82600
C1006       C  0.65700556  0.69508928  0.12230626     0.97900
O1007       O  0.64460643  0.71415502  0.14054978    -0.82700
O1008       O  0.60121281  0.73137098  0.17298429    -0.85300
C1009       C  0.60340452  0.70494774  0.19456264     1.02400
O1010       O  0.59317700  0.66867785  0.18681804    -0.78100
O1011       O  0.57612177  0.59943497  0.14500242    -0.78200
C1012       C  0.60211539  0.58491714  0.14232539     1.02300
Cr1013     Cr  0.59637533  0.64513169  0.09464080     1.93700
Cr1014     Cr  0.59711731  0.72863109  0.12676175     1.93200
Cr1015     Cr  0.55951991  0.65663445  0.14293917     1.39100
O1016       O  0.58488861  0.67687718  0.12193131    -1.23300
O1017       O  0.82494201  0.14158506  0.05911820    -0.85600
O1018       O  0.87780482  0.18920366  0.06833775    -0.82600
C1019       C  0.86268982  0.22144370  0.05780350     0.97900
O1020       O  0.84811819  0.23994977  0.07439198    -0.82700
O1021       O  0.81992610  0.25446483  0.12416820    -0.85300
C1022       C  0.79118510  0.23988368  0.11495656     1.02400
O1023       O  0.78659362  0.20332300  0.10686118    -0.78100
O1024       O  0.79497207  0.12681505  0.08946545    -0.78300
C1025       C  0.79801297  0.13030673  0.06139287     1.02400
O1026       O  0.85954019  0.09468457  0.11480378    -0.85600
O1027       O  0.91103742  0.15107242  0.12730983    -0.82600
C1028       C  0.92501852  0.18525156  0.12905841     0.97900
O1029       O  0.90854064  0.21785545  0.12419037    -0.82700
O1030       O  0.87769081  0.22441848  0.16994873    -0.85300
C1031       C  0.85805186  0.21673274  0.18506400     1.02400
O1032       O  0.83284118  0.19432244  0.17195847    -0.78100
O1033       O  0.84347074  0.11455724  0.15479994    -0.78200
C1034       C  0.85404590  0.08714488  0.14087243     1.02300
Cr1035     Cr  0.86682685  0.14632659  0.09453256     1.93700
Cr1036     Cr  0.86242585  0.23026038  0.12241052     1.93200
Cr1037     Cr  0.81728216  0.16085763  0.13005098     1.39100
O1038       O  0.84917421  0.17888540  0.11642074    -1.23300
O1039       O  0.66013163  0.13676110  0.44254988    -0.85600
O1040       O  0.61458655  0.19283797  0.43628778    -0.82600
C1041       C  0.63058557  0.22571368  0.44270773     0.97900
O1042       O  0.64327250  0.24147256  0.42324992    -0.82700
O1043       O  0.66562551  0.24836274  0.37014541    -0.85300
C1044       C  0.69389743  0.23361242  0.37900868     1.02400
O1045       O  0.69840355  0.19782972  0.38952404    -0.78100
O1046       O  0.68959779  0.12263136  0.41173637    -0.78300
C1047       C  0.68647738  0.12456365  0.43978891     1.02400
O1048       O  0.61877718  0.09284135  0.38806561    -0.85600
O1049       O  0.57220690  0.15561948  0.37860736    -0.82600
C1050       C  0.56141570  0.19126286  0.37818601     0.97900
O1051       O  0.58024004  0.22136066  0.38039934    -0.82700
O1052       O  0.60557310  0.21690388  0.32994735    -0.85300
C1053       C  0.62389552  0.20751632  0.31388011     1.02400
O1054       O  0.64888154  0.18494192  0.32674388    -0.78100
O1055       O  0.63895795  0.10659352  0.34921830    -0.78200
C1056       C  0.62646937  0.08165227  0.36390640     1.02300
Cr1057     Cr  0.61775009  0.14649794  0.40884728     1.93700
Cr1058     Cr  0.62466916  0.22751653  0.37667475     1.93200
Cr1059     Cr  0.66613879  0.15442997  0.37023550     1.39100
O1060       O  0.63600182  0.17559503  0.38482028    -1.23300
O1061       O  0.94102250  0.37102097  0.41328018    -0.85600
O1062       O  0.94885666  0.29659840  0.39089613    -0.82600
C1063       C  0.94377152  0.26035887  0.38165626     0.97900
O1064       O  0.91497295  0.24755311  0.36935547    -0.82700
O1065       O  0.88956116  0.25524788  0.42081308    -0.85300
C1066       C  0.87581658  0.27163128  0.43904391     1.02400
O1067       O  0.85986099  0.30395303  0.43114277    -0.78100
O1068       O  0.90819783  0.35854706  0.44129443    -0.78300
C1069       C  0.93606571  0.36859273  0.44049804     1.02400
O1070       O  0.89354455  0.39085739  0.34920003    -0.85600
O1071       O  0.90201497  0.31281175  0.32606005    -0.82600
C1072       C  0.87626444  0.29159293  0.31189804     0.97900
O1073       O  0.85735017  0.28139192  0.32722220    -0.82700
O1074       O  0.82887948  0.27649834  0.37437305    -0.85300
C1075       C  0.81004750  0.30654583  0.36960557     1.02400
O1076       O  0.82179899  0.34221641  0.37282236    -0.78100
O1077       O  0.87000773  0.40318001  0.38560438    -0.78200
C1078       C  0.87859052  0.41462763  0.36204340     1.02300
Cr1079     Cr  0.91842403  0.34145317  0.37054953     1.93700
Cr1080     Cr  0.87389615  0.26961059  0.37385509     1.93200
Cr1081     Cr  0.86663181  0.35003042  0.40538429     1.39100
O1082       O  0.88615834  0.32101867  0.38278576    -1.23300
O1083       O  0.53399279  0.34383335  0.09180077    -0.85600
O1084       O  0.54587621  0.28257719  0.13808269    -0.82600
C1085       C  0.54400483  0.25065710  0.12188464     0.97900
O1086       O  0.56520526  0.24322361  0.10845998    -0.82700
O1087       O  0.61490610  0.25995266  0.08157595    -0.85300
C1088       C  0.60478446  0.28078800  0.05585235     1.02400
O1089       O  0.59164286  0.31456583  0.05599372    -0.78100
O1090       O  0.56664981  0.38114543  0.07454813    -0.78300
C1091       C  0.53853720  0.36609993  0.06983355     1.02400
O1092       O  0.58201155  0.39403614  0.13955989    -0.85600
O1093       O  0.59712726  0.32534571  0.18216185    -0.82600
C1094       C  0.60785553  0.28977304  0.19120875     0.97900
O1095       O  0.61059909  0.26396932  0.17090715    -0.82700
O1096       O  0.65801306  0.28461228  0.14277500    -0.85300
C1097       C  0.67084342  0.30377405  0.12470108     1.02400
O1098       O  0.65387139  0.32805058  0.10329319    -0.78100
O1099       O  0.62725235  0.39155630  0.12785704    -0.78200
C1100       C  0.60816120  0.41091991  0.13872519     1.02300
Cr1101     Cr  0.56721330  0.33561826  0.13647103     1.93700
Cr1102     Cr  0.61076870  0.26713264  0.12542256     1.93200
Cr1103     Cr  0.60900418  0.35119686  0.09299894     1.39100
O1104       O  0.59629689  0.31800648  0.11897609    -1.23300
C1105       C  0.96294118  0.37575790  0.47272726    -0.00400
C1106       C  0.95463993  0.37492983  0.50153120    -0.12300
C1107       C  0.97514682  0.34905064  0.03058278     0.01800
C1108       C  0.51174038  0.37316028  0.03776836    -0.00500
C1109       C  0.51972034  0.37726730  0.00898506    -0.12200
C1110       C  0.99662106  0.37931703  0.47629374     0.01700
H1111       H  0.92912628  0.37312853  0.49990733     0.14700
H1112       H  0.54526202  0.37784481  0.01062953     0.18700
C1113       C  0.00769315  0.38069218  0.44850936     0.36400
C1114       C  0.96631659  0.32831614  0.05581008     0.36300
N1115       N  0.01676473  0.38178419  0.42634777    -0.44000
N1116       N  0.95909077  0.31126483  0.07574252    -0.44000
C1117       C  0.61866849  0.22800398  0.28168262    -0.00400
C1118       C  0.64456547  0.22894828  0.26895617    -0.12300
C1119       C  0.64247948  0.25144447  0.24088187     0.01800
C1120       C  0.61433986  0.27471630  0.22498238    -0.00500
C1121       C  0.58860244  0.27448113  0.23778417    -0.12200
C1122       C  0.59025083  0.25117549  0.26545798     0.01700
H1123       H  0.66676020  0.21217919  0.28102523     0.14700
H1124       H  0.56623800  0.29059648  0.22493815     0.14700
C1125       C  0.56166472  0.25042912  0.27555944     0.36400
C1126       C  0.66949209  0.24951485  0.22850303     0.36300
N1127       N  0.53866017  0.24973860  0.28348565    -0.44000
N1128       N  0.69114666  0.24750439  0.21862347    -0.44000
C1129       C  0.63080363  0.24617981  0.47210884    -0.00400
C1130       C  0.64402111  0.22473541  0.50116509    -0.12300
C1131       C  0.63441715  0.23703061  0.02701730     0.01800
C1132       C  0.61223640  0.26867283  0.02655747    -0.00500
C1133       C  0.60011065  0.29293831  0.99844982    -0.12200
C1134       C  0.60937055  0.27860554  0.47026015     0.01700
H1135       H  0.66017525  0.19944567  0.50213282     0.14700
H1136       H  0.58316462  0.31733848  0.99755289     0.14700
C1137       C  0.59473275  0.30076819  0.44029746     0.36400
C1138       C  0.64759553  0.20981014  0.05432340     0.36300
N1139       N  0.58294870  0.31834381  0.41621651    -0.44000
N1140       N  0.65841429  0.18782651  0.07600003    -0.44000
C1141       C  0.72089001  0.25620819  0.37295981    -0.00400
C1142       C  0.72957592  0.29554089  0.38540757    -0.12300
C1143       C  0.75692476  0.31569760  0.38159175     0.01800
C1144       C  0.77517357  0.29673006  0.36422865    -0.00500
C1145       C  0.76382072  0.25950799  0.34878582    -0.12200
C1146       C  0.73759712  0.23884465  0.35355554     0.01700
H1147       H  0.71614705  0.30951210  0.39957782     0.14700
H1148       H  0.77736925  0.24469669  0.33512660     0.14700
C1149       C  0.72897245  0.19923291  0.33888594     0.36400
C1150       C  0.76712719  0.35402787  0.39779323     0.36300
N1151       N  0.72226816  0.16746030  0.32722377    -0.44000
N1152       N  0.77520972  0.38479686  0.41081048    -0.44000
C1153       C  0.52937234  0.19980838  0.38192380    -0.00400
C1154       C  0.53012995  0.22257247  0.40935564    -0.12300
C1155       C  0.00045572  0.23385647  0.41031951     0.01800
C1156       C  0.97155534  0.23364423  0.38318287    -0.00500
C1157       C  0.97032190  0.21033371  0.35572978    -0.12200
C1158       C  0.49910831  0.19260440  0.35748436     0.01700
H1159       H  0.55327072  0.22752142  0.42862922     0.14700
H1160       H  0.94799406  0.20952242  0.33488495     0.14700
C1161       C  0.49722527  0.16903113  0.32911126     0.36400
C1162       C  0.00240119  0.25480628  0.43997687     0.36300
N1163       N  0.49584635  0.15001387  0.30642873    -0.44000
N1164       N  0.00386557  0.27148662  0.46373958    -0.44000
C1165       C  0.86328136  0.23663949  0.21739709    -0.00400
C1166       C  0.84361408  0.22457182  0.23570664    -0.12300
C1167       C  0.84620232  0.24316710  0.26535792     0.01800
C1168       C  0.86958392  0.27476692  0.27822396    -0.00500
C1169       C  0.88873109  0.28763030  0.25950163    -0.12200
C1170       C  0.88551672  0.26959038  0.22933881     0.01700
H1171       H  0.82585990  0.20027528  0.22679842     0.14700
H1172       H  0.90639369  0.31201412  0.26842631     0.14700
C1173       C  0.90464966  0.28694908  0.21091746     0.36400
C1174       C  0.82454159  0.22797145  0.28187372     0.36300
N1175       N  0.91982527  0.30129202  0.19617300    -0.44000
N1176       N  0.80696657  0.21538294  0.29470316    -0.44000
C1177       C  0.87502424  0.25326126  0.46894916    -0.00400
C1178       C  0.89143476  0.27420487  0.49776742    -0.12300
C1179       C  0.83755416  0.25659148  0.00384928     0.01800
C1180       C  0.86367917  0.23596013  0.02619102    -0.00500
C1181       C  0.89058759  0.22407787  0.01689398    -0.12200
C1182       C  0.84990308  0.22540705  0.46797940     0.01700
H1183       H  0.90958784  0.29720660  0.49797875     0.14700
H1184       H  0.91102287  0.20806072  0.03400997     0.14700
C1185       C  0.83029097  0.20635670  0.43793957     0.36400
C1186       C  0.80919163  0.26923673  0.01165762     0.36300
N1187       N  0.81439514  0.19149712  0.41378616    -0.44000
N1188       N  0.78648079  0.27978861  0.01776392    -0.44000
C1189       C  0.51600866  0.22330653  0.11970950    -0.00400
C1190       C  0.51383780  0.20678547  0.14887381    -0.12300
C1191       C  0.98289189  0.20577613  0.15863542     0.01800
C1192       C  0.95960866  0.18840409  0.13116618    -0.00500
C1193       C  0.96714582  0.18463687  0.10225151    -0.12200
C1194       C  0.99587868  0.20195573  0.09937097     0.01700
H1195       H  0.53536833  0.20699741  0.17060354     0.14700
H1196       H  0.94912784  0.17159903  0.08097907     0.14700
C1197       C  0.00054836  0.20196516  0.06809434     0.36400
C1198       C  0.97611602  0.21069455  0.18867946     0.36300
N1199       N  0.00430301  0.20204437  0.04300999    -0.44000
N1200       N  0.97062061  0.21482135  0.21270845    -0.44000
C1201       C  0.76267370  0.26369055  0.11635160    -0.00400
C1202       C  0.76215935  0.27821325  0.14659468    -0.12300
C1203       C  0.73283561  0.29212514  0.15038704     0.01800
C1204       C  0.70371078  0.29280659  0.12335338    -0.00500
C1205       C  0.70510799  0.28116440  0.09285589    -0.12200
C1206       C  0.73365435  0.26537963  0.08936326     0.01700
H1207       H  0.78422209  0.27653676  0.16766623     0.14700
H1208       H  0.68319611  0.28261298  0.07174082     0.14700
C1209       C  0.73206664  0.24921333  0.05811990     0.36400
C1210       C  0.73338212  0.30632503  0.18181126     0.36300
N1211       N  0.73052722  0.23573312  0.03317772    -0.44000
N1212       N  0.73407443  0.31809908  0.20701223    -0.44000
C1213       C  0.76976085  0.12329892  0.03043359    -0.00400
C1214       C  0.73774204  0.12051463  0.03148754    -0.12300
C1215       C  0.71031060  0.12104292  0.00283749     0.01800
C1216       C  0.71435180  0.11498227  0.47050579    -0.00500
C1217       C  0.74621308  0.11057206  0.46939040    -0.12200
C1218       C  0.77371229  0.12377355  0.99921398     0.01700
H1219       H  0.73394728  0.11949796  0.05486277     0.14700
H1220       H  0.74994440  0.10932935  0.44600460     0.14700
C1221       C  0.80553576  0.12469572  0.99523319     0.36400
C1222       C  0.67835727  0.11796390  0.00637715     0.36300
N1223       N  0.83081243  0.09928512  0.49190527    -0.44000
N1224       N  0.65281018  0.11544801  0.00932904    -0.44000
C1225       C  0.61002565  0.54103519  0.14972501    -0.00400
C1226       C  0.63263508  0.52243557  0.13742337    -0.12300
C1227       C  0.63473991  0.47997050  0.13603703     0.01800
C1228       C  0.61382703  0.45493343  0.14716701    -0.00500
C1229       C  0.59404803  0.47357975  0.16282466    -0.12200
C1230       C  0.59203938  0.51593039  0.16432261     0.01700
H1231       H  0.64727721  0.54100120  0.12678724     0.14700
H1232       H  0.57865699  0.45499961  0.17255817     0.14700
C1233       C  0.57015477  0.53235266  0.17985554     0.36400
C1234       C  0.65700810  0.46347793  0.12099029     0.36300
N1235       N  0.55253921  0.54532163  0.19228632    -0.44000
N1236       N  0.67493267  0.45045930  0.10894424    -0.44000
C1237       C  0.87304505  0.45798849  0.35216869    -0.00400
C1238       C  0.89892985  0.48087617  0.34811551    -0.12300
C1239       C  0.89922768  0.52351306  0.35014353     0.01800
C1240       C  0.87321333  0.54385876  0.35634671    -0.00500
C1241       C  0.84585749  0.52116238  0.35690222    -0.12200
C1242       C  0.84538475  0.47873841  0.35443157     0.01700
H1243       H  0.92031315  0.46540839  0.34639042     0.14700
H1244       H  0.82539277  0.53648406  0.36082026     0.14700
C1245       C  0.81666748  0.45701558  0.35557312     0.36400
C1246       C  0.92811378  0.54512338  0.34935904     0.36300
N1247       N  0.79356491  0.43967547  0.35629200    -0.44000
N1248       N  0.95126275  0.56251512  0.34881900    -0.44000
C1249       C  0.95752854  0.62358910  0.47939878    -0.00400
C1250       C  0.94787156  0.61987148  0.50737669    -0.12300
C1251       C  0.46781936  0.61960827  0.04041441     0.01800
C1252       C  0.50149985  0.62080916  0.04465820    -0.00500
C1253       C  0.00781526  0.61072682  0.01806200    -0.12200
C1254       C  0.99145003  0.62469512  0.48421158     0.01700
H1255       H  0.92207034  0.61838239  0.50463430     0.14700
H1256       H  0.03251577  0.60083846  0.02125436     0.14700
C1257       C  0.00366775  0.62997237  0.45738689     0.36400
C1258       C  0.45643064  0.61809543  0.06799988     0.36300
N1259       N  0.01357893  0.63448759  0.43598198    -0.44000
N1260       N  0.44735571  0.61661598  0.09014896    -0.44000
C1261       C  0.62375039  0.95095152  0.35730070    -0.00400
C1262       C  0.64953138  0.97306899  0.35195808    -0.12300
C1263       C  0.64930734  0.01580359  0.35053705     0.01800
C1264       C  0.62325688  0.03762322  0.35527346    -0.00500
C1265       C  0.59624468  0.01563601  0.35768120    -0.12200
C1266       C  0.59586075  0.97293983  0.35785159     0.01700
H1267       H  0.67085401  0.95714679  0.35057624     0.14700
H1268       H  0.57569724  0.03196480  0.36051896     0.14700
C1269       C  0.56653071  0.95290377  0.35903315     0.36400
C1270       C  0.67742347  0.03648195  0.34689108     0.36300
N1271       N  0.54273312  0.93706440  0.35945534    -0.44000
N1272       N  0.69985671  0.05315165  0.34382734    -0.44000
C1273       C  0.62189387  0.76352873  0.28694184    -0.00400
C1274       C  0.64010753  0.77491717  0.26707643    -0.12300
C1275       C  0.63655043  0.75388866  0.23808458     0.01800
C1276       C  0.61467836  0.72016610  0.22859468    -0.00500
C1277       C  0.59764917  0.70776015  0.24916519    -0.12200
C1278       C  0.60016906  0.72963019  0.27737511     0.01700
H1279       H  0.65760511  0.79973183  0.27447905     0.14700
H1280       H  0.58026890  0.68278884  0.24188811     0.14700
C1281       C  0.57869746  0.71749548  0.29511260     0.36400
C1282       C  0.65578441  0.76763773  0.21850920     0.36300
N1283       N  0.56129617  0.70760402  0.30902533    -0.44000
N1284       N  0.67110379  0.77888612  0.20281648    -0.44000
C1285       C  0.58664218  0.73300550  0.02590281    -0.00400
C1286       C  0.59203831  0.70540536  0.00392855    -0.12300
C1287       C  0.58679598  0.73258202  0.47426878     0.01800
C1288       C  0.60851512  0.76598981  0.47705844    -0.00500
C1289       C  0.61722683  0.78981190  0.50517840    -0.12200
C1290       C  0.59133474  0.77494769  0.02207389     0.01700
H1291       H  0.58866330  0.67308965  0.00679589     0.14700
H1292       H  0.63239267  0.81666625  0.50709675     0.14700
C1293       C  0.58352753  0.80513718  0.04228716     0.36400
C1294       C  0.57339368  0.70908896  0.44482452     0.36300
N1295       N  0.57723788  0.82934674  0.05841099    -0.44000
N1296       N  0.56238846  0.69026686  0.42129549    -0.44000
C1297       C  0.71623982  0.71654847  0.39552848    -0.00400
C1298       C  0.71526309  0.69616912  0.36682510    -0.12300
C1299       C  0.74421155  0.68401096  0.36164217     0.01800
C1300       C  0.77462524  0.69281448  0.38530204    -0.00500
C1301       C  0.77523914  0.70920322  0.41527389    -0.12200
C1302       C  0.74646475  0.72104624  0.42056848     0.01700
H1303       H  0.69211258  0.69325970  0.34717250     0.14700
H1304       H  0.79843263  0.71496786  0.43407173     0.14700
C1305       C  0.74886897  0.74163509  0.45049152     0.36400
C1306       C  0.74229164  0.66590713  0.33098853     0.36300
N1307       N  0.75087650  0.75808793  0.47449439    -0.44000
N1308       N  0.74072515  0.65127357  0.30642331    -0.44000
C1309       C  0.52639302  0.79074547  0.37231468    -0.00400
C1310       C  0.51454759  0.75202768  0.36078822    -0.12300
C1311       C  0.98477328  0.73910620  0.36209417     0.01800
C1312       C  0.96774953  0.75950016  0.38002199    -0.00500
C1313       C  0.97859109  0.79802571  0.39257475    -0.12200
C1314       C  0.00755991  0.81484791  0.38986512     0.01700
H1315       H  0.52878883  0.73253857  0.35071000     0.14700
H1316       H  0.96537185  0.81405967  0.40595757     0.14700
C1317       C  0.01834657  0.85350221  0.40539961     0.36400
C1318       C  0.97423902  0.69987916  0.34749320     0.36300
N1319       N  0.02689864  0.88432638  0.41816247    -0.44000
N1320       N  0.96617316  0.66841089  0.33572611    -0.44000
C1321       C  0.85583082  0.95844842  0.15306850    -0.00400
C1322       C  0.83160476  0.98134167  0.16010187    -0.12300
C1323       C  0.83236837  0.02395278  0.15995036     0.01800
C1324       C  0.85772013  0.04453645  0.15258585    -0.00500
C1325       C  0.88386348  0.02190412  0.14943463    -0.12200
C1326       C  0.88342889  0.97933484  0.15008232     0.01700
H1327       H  0.81062365  0.96612182  0.16339045     0.14700
H1328       H  0.90386724  0.03756774  0.14451123     0.14700
C1329       C  0.91100119  0.95826911  0.14614781     0.36400
C1330       C  0.80509024  0.04556135  0.16400058     0.36300
N1331       N  0.93319962  0.94147511  0.14313673    -0.44000
N1332       N  0.78323788  0.06289673  0.16724770    -0.44000
C1333       C  0.85976107  0.77520515  0.22797512    -0.00400
C1334       C  0.87169410  0.73481732  0.23301951    -0.12300
C1335       C  0.87570469  0.71360448  0.26210632     0.01800
C1336       C  0.86851525  0.73270514  0.28762430    -0.00500
C1337       C  0.85768041  0.77335013  0.28330394    -0.12200
C1338       C  0.85323966  0.79456673  0.25399666     0.01700
H1339       H  0.87679682  0.71874031  0.21360773     0.14700
H1340       H  0.85249373  0.78870318  0.30299690     0.14700
C1341       C  0.84072420  0.83539613  0.25105026     0.36400
C1342       C  0.88479964  0.67131421  0.26423716     0.36300
N1343       N  0.83059787  0.86810491  0.24874481    -0.44000
N1344       N  0.89163900  0.63727209  0.26591814    -0.44000
C1345       C  0.86866576  0.74796110  0.47399998    -0.00400
C1346       C  0.88388777  0.72827791  0.50346801    -0.12300
C1347       C  0.84432374  0.72866197  0.02090824     0.01800
C1348       C  0.84152535  0.77077911  0.02523205    -0.00500
C1349       C  0.84698137  0.79801948  0.00250069    -0.12200
C1350       C  0.84461866  0.77741446  0.47148017     0.01700
H1351       H  0.90179444  0.70479821  0.50484746     0.14700
H1352       H  0.84562966  0.83049384  0.00592100     0.14700
C1353       C  0.82732290  0.79665293  0.44075837     0.36400
C1354       C  0.83881972  0.69854314  0.04284256     0.36300
N1355       N  0.81343425  0.81165192  0.41597952    -0.44000
N1356       N  0.83468308  0.67428535  0.06042571    -0.44000
C1357       C  0.94230873  0.80094594  0.12667392    -0.00400
C1358       C  0.96242867  0.78266425  0.15518414    -0.12300
C1359       C  0.99283403  0.76701859  0.15723917     0.01800
C1360       C  0.50448911  0.76590183  0.13062000    -0.00500
C1361       C  0.48515578  0.78602810  0.10242557    -0.12200
C1362       C  0.95482194  0.80711808  0.10063690     0.01700
H1363       H  0.95381845  0.77913905  0.17577296     0.14700
H1364       H  0.49270450  0.78633290  0.08105411     0.14700
C1365       C  0.93642997  0.82815576  0.07111928     0.36400
C1366       C  0.01135219  0.74820651  0.18766631     0.36300
N1367       N  0.92195343  0.84530943  0.04752745    -0.44000
N1368       N  0.02529455  0.73311790  0.21234121    -0.44000
C1369       C  0.69179465  0.70207922  0.12464196    -0.00400
C1370       C  0.71412410  0.71508981  0.15426813    -0.12300
C1371       C  0.74569434  0.72774258  0.15651900     0.01800
C1372       C  0.75518457  0.72947357  0.12831007    -0.00500
C1373       C  0.73423045  0.71256045  0.09943562    -0.12200
C1374       C  0.70290615  0.69831998  0.09746830     0.01700
H1375       H  0.70667970  0.71619909  0.17569070     0.14700
H1376       H  0.74137765  0.71296857  0.07782281     0.14700
C1377       C  0.68233617  0.68214826  0.06667236     0.36400
C1378       C  0.76756612  0.73970058  0.18818305     0.36300
N1379       N  0.66617603  0.66874560  0.04201862    -0.44000
N1380       N  0.78468955  0.74889358  0.21381027    -0.44000
C1381       C  0.75323080  0.87163731  0.04167518    -0.00400
C1382       C  0.76551491  0.87554147  0.01553662    -0.12300
C1383       C  0.74906448  0.87028981  0.48251990     0.01800
C1384       C  0.71515205  0.86406920  0.47501747    -0.00500
C1385       C  0.70285383  0.85901245  0.50102322    -0.12200
C1386       C  0.71909945  0.86656935  0.03420171     0.01700
H1387       H  0.79159292  0.87939024  0.02049519     0.14700
H1388       H  0.67686760  0.85405652  0.49578973     0.14700
C1389       C  0.70463844  0.86222981  0.05950992     0.36400
C1390       C  0.76329283  0.87579877  0.45717337     0.36300
N1391       N  0.69298627  0.85861513  0.07974688    -0.44000
N1392       N  0.77466704  0.88028023  0.43682028    -0.44000
O1393       O  0.77710039  0.84248966  0.59777993    -0.85600
O1394       O  0.79105290  0.78301745  0.64569816    -0.82600
C1395       C  0.78636538  0.75199688  0.62814682     0.97900
O1396       O  0.80533137  0.74423814  0.61229330    -0.82700
O1397       O  0.85265216  0.75836061  0.58278416    -0.85300
C1398       C  0.84347314  0.77976294  0.55740145     1.02400
O1399       O  0.83215022  0.81467618  0.55787838    -0.78100
O1400       O  0.80926450  0.88060985  0.58087338    -0.78300
C1401       C  0.78186600  0.86340367  0.57520933     1.02400
O1402       O  0.82682673  0.89358933  0.64375233    -0.85600
O1403       O  0.84460126  0.82499309  0.68645527    -0.82600
C1404       C  0.85455306  0.78889687  0.69497343     0.97900
O1405       O  0.85437550  0.76264584  0.67379529    -0.82700
O1406       O  0.89891489  0.78121477  0.64219978    -0.85300
C1407       C  0.91158468  0.80106215  0.62430505     1.02400
O1408       O  0.89487246  0.82604604  0.60359086    -0.78100
O1409       O  0.87138128  0.88907649  0.63123200    -0.78200
C1410       C  0.85307656  0.90952130  0.64239014     1.02300
Cr1411     Cr  0.81200366  0.83534256  0.64186985     1.93700
Cr1412     Cr  0.85159658  0.76562360  0.62737312     1.93200
Cr1413     Cr  0.85105443  0.85006287  0.59576537     1.39100
O1414       O  0.83899247  0.81694126  0.62224421    -1.23300
O1415       O  0.69536518  0.84332199  0.91999970    -0.85600
O1416       O  0.68771091  0.78308386  0.87363591    -0.82600
C1417       C  0.68897530  0.74953055  0.88777152     0.97900
O1418       O  0.66887412  0.74167212  0.90252342    -0.82700
O1419       O  0.61608267  0.75489435  0.92552528    -0.85300
C1420       C  0.62080092  0.77646934  0.95028989     1.02400
O1421       O  0.63022830  0.81275045  0.95078524    -0.78100
O1422       O  0.65951509  0.87820594  0.93410812    -0.78300
C1423       C  0.68783879  0.86335278  0.94128594     1.02400
O1424       O  0.65075146  0.89341644  0.86991523    -0.85600
O1425       O  0.63752474  0.82245120  0.82716494    -0.82600
C1426       C  0.62798011  0.78585833  0.81909823     0.97900
O1427       O  0.62585743  0.76052777  0.83999804    -0.82700
O1428       O  0.57551227  0.77627826  0.86357114    -0.85300
C1429       C  0.55917056  0.79656118  0.87739001     1.02400
O1430       O  0.57283794  0.82424147  0.89729179    -0.78100
O1431       O  0.60319427  0.88910081  0.87653279    -0.78200
C1432       C  0.62416084  0.90998833  0.86897741     1.02300
Cr1433     Cr  0.66515960  0.83472765  0.87399911     1.93700
Cr1434     Cr  0.62287330  0.76316350  0.88365708     1.93200
Cr1435     Cr  0.61779186  0.84834112  0.91225195     1.39100
O1436       O  0.63469344  0.81533805  0.88951845    -1.23300
O1437       O  0.89895672  0.63928471  0.94707128    -0.85600
O1438       O  0.84866804  0.68948726  0.93402102    -0.82600
C1439       C  0.86248766  0.72346930  0.94278331     0.97900
O1440       O  0.87798235  0.74086274  0.92628344    -0.82700
O1441       O  0.90987829  0.75036177  0.87830498    -0.85300
C1442       C  0.93838778  0.73563117  0.88951280     1.02400
O1443       O  0.94184062  0.70146893  0.90270417    -0.78100
O1444       O  0.93314256  0.62559515  0.92125638    -0.78300
C1445       C  0.92710633  0.62946380  0.94783717     1.02400
O1446       O  0.86687570  0.59147877  0.89010134    -0.85600
O1447       O  0.81631978  0.64901166  0.87472569    -0.82600
C1448       C  0.80262002  0.68307166  0.87274897     0.97900
O1449       O  0.81946714  0.71555922  0.87649965    -0.82700
O1450       O  0.85349292  0.71607646  0.83265318    -0.85300
C1451       C  0.87509461  0.70913197  0.81982965     1.02400
O1452       O  0.90057370  0.68870330  0.83542934    -0.78100
O1453       O  0.88959847  0.61013444  0.85420185    -0.78200
C1454       C  0.87651967  0.58315606  0.86643272     1.02300
Cr1455     Cr  0.85931438  0.64428404  0.90940390     1.93700
Cr1456     Cr  0.86633791  0.72683082  0.87938766     1.93200
Cr1457     Cr  0.91342960  0.65753137  0.87889427     1.39100
O1458       O  0.87941884  0.67576567  0.88867233    -1.23300
O1459       O  0.55721019  0.61684122  0.58093977    -0.85600
O1460       O  0.57557639  0.68827468  0.55894324    -0.82600
C1461       C  0.58599316  0.72419969  0.55951160     0.97900
O1462       O  0.59888715  0.74208704  0.58608351    -0.82700
O1463       O  0.55482621  0.75173412  0.61943674    -0.85300
C1464       C  0.53628561  0.74103132  0.63526065     1.02400
O1465       O  0.54108020  0.70792763  0.65051906    -0.78100
O1466       O  0.52612732  0.65031748  0.60167651    -0.78300
C1467       C  0.52957270  0.63130517  0.57776496     1.02400
O1468       O  0.62102071  0.60927134  0.62719706    -0.85600
O1469       O  0.64069538  0.67646613  0.60015452    -0.82600
C1470       C  0.65905730  0.69829643  0.62250640     0.97900
O1471       O  0.64797462  0.71543690  0.64263027    -0.82700
O1472       O  0.60623944  0.73052652  0.67725847    -0.85300
C1473       C  0.60776986  0.70320135  0.69795053     1.02400
O1474       O  0.59696094  0.66735981  0.68910200    -0.78100
O1475       O  0.57942402  0.60038177  0.64447025    -0.78200
C1476       C  0.60495279  0.58679489  0.64003718     1.02300
Cr1477     Cr  0.59785082  0.65010073  0.59438187     1.93700
Cr1478     Cr  0.60080051  0.73073926  0.63080785     1.93200
Cr1479     Cr  0.56290258  0.65747205  0.64480776     1.39100
O1480       O  0.58781315  0.67944044  0.62393318    -1.23300
O1481       O  0.82467974  0.13567078  0.55633702    -0.85600
O1482       O  0.87337851  0.18835906  0.56315213    -0.82600
C1483       C  0.85802347  0.22107850  0.55509233     0.97900
O1484       O  0.84542099  0.23889800  0.57364521    -0.82700
O1485       O  0.82061287  0.24939515  0.62550089    -0.85300
C1486       C  0.79175429  0.23559276  0.61471201     1.02400
O1487       O  0.78697689  0.19928739  0.60570752    -0.78100
O1488       O  0.79515250  0.12247897  0.58744860    -0.78300
C1489       C  0.79815235  0.12394710  0.55934229     1.02400
O1490       O  0.86334474  0.09198764  0.61227393    -0.85600
O1491       O  0.91233497  0.15157115  0.62188854    -0.82600
C1492       C  0.92485998  0.18642115  0.62217097     0.97900
O1493       O  0.90731618  0.21777077  0.61896647    -0.82700
O1494       O  0.87980797  0.21798268  0.66837876    -0.85300
C1495       C  0.86073353  0.20912217  0.68395529     1.02400
O1496       O  0.83476103  0.18817479  0.67038828    -0.78100
O1497       O  0.84449140  0.10921361  0.65118962    -0.78200
C1498       C  0.85644529  0.08302298  0.63737910     1.02300
Cr1499     Cr  0.86707360  0.14406310  0.59077795     1.93700
Cr1500     Cr  0.86222878  0.22679097  0.62098293     1.93200
Cr1501     Cr  0.81811691  0.15611647  0.62783219     1.39100
O1502       O  0.84940250  0.17519324  0.61370559    -1.23300
O1503       O  0.66029397  0.14723530  0.94411540    -0.85600
O1504       O  0.61307340  0.20187346  0.93524380    -0.82600
C1505       C  0.62944178  0.23433870  0.94161595     0.97900
O1506       O  0.64209578  0.24969335  0.92197413    -0.82700
O1507       O  0.66472481  0.25446341  0.86879724    -0.85300
C1508       C  0.69289722  0.23946537  0.87670962     1.02400
O1509       O  0.69775277  0.20379300  0.88757298    -0.78100
O1510       O  0.68895029  0.13016271  0.91305506    -0.78300
C1511       C  0.68629284  0.13391713  0.94123744     1.02400
O1512       O  0.62003465  0.09973127  0.89191697    -0.85600
O1513       O  0.57264465  0.16134275  0.87881432    -0.82600
C1514       C  0.56103271  0.19667203  0.87720854     0.97900
O1515       O  0.57916763  0.22739313  0.87891912    -0.82700
O1516       O  0.60498732  0.22192401  0.82903898    -0.85300
C1517       C  0.62349957  0.21209575  0.81331225     1.02400
O1518       O  0.64774333  0.18845313  0.82625796    -0.78100
O1519       O  0.63790623  0.11066910  0.85125416    -0.78200
C1520       C  0.62621164  0.08673943  0.86744663     1.02300
Cr1521     Cr  0.61782358  0.15447945  0.90995261     1.93700
Cr1522     Cr  0.62379311  0.23397529  0.87556635     1.93200
Cr1523     Cr  0.66526718  0.15974669  0.87045072     1.39100
O1524       O  0.63557963  0.18232080  0.88492369    -1.23300
O1525       O  0.93862117  0.36651504  0.91216538    -0.85600
O1526       O  0.94649288  0.29221613  0.89028341    -0.82600
C1527       C  0.94153045  0.25611786  0.88082589     0.97900
O1528       O  0.91279092  0.24312553  0.86814226    -0.82700
O1529       O  0.88271769  0.25284417  0.91622298    -0.85300
C1530       C  0.86722597  0.26961498  0.93275868     1.02400
O1531       O  0.85189194  0.30192952  0.92299293    -0.78100
O1532       O  0.90415559  0.35177486  0.93788062    -0.78300
C1533       C  0.93261085  0.36164542  0.93873579     1.02400
O1534       O  0.89431426  0.38703874  0.84613697    -0.85600
O1535       O  0.90383880  0.30879873  0.82422174    -0.82600
C1536       C  0.87828465  0.28810792  0.80862155     0.97900
O1537       O  0.85797397  0.27751489  0.82228553    -0.82700
O1538       O  0.82462981  0.27677035  0.86549610    -0.85300
C1539       C  0.80713007  0.30821337  0.86090241     1.02400
O1540       O  0.82037031  0.34311608  0.86488956    -0.78100
O1541       O  0.87133898  0.40083852  0.88264140    -0.78200
C1542       C  0.88000724  0.41162430  0.85897619     1.02300
Cr1543     Cr  0.91780071  0.33739031  0.86865770     1.93700
Cr1544     Cr  0.87072827  0.26673884  0.86903383     1.93200
Cr1545     Cr  0.86375713  0.34753388  0.89996023     1.39100
O1546       O  0.88384378  0.31778194  0.87846219    -1.23300
O1547       O  0.53577464  0.34398767  0.59322718    -0.85600
O1548       O  0.55001070  0.28540605  0.64151586    -0.82600
C1549       C  0.54735178  0.25189050  0.62715395     0.97900
O1550       O  0.56658312  0.24351326  0.61159220    -0.82700
O1551       O  0.61393611  0.25841704  0.58087644    -0.85300
C1552       C  0.60408977  0.27855407  0.55480851     1.02400
O1553       O  0.59112767  0.31263979  0.55423629    -0.78100
O1554       O  0.56686702  0.38005435  0.57316780    -0.78300
C1555       C  0.53910510  0.36478807  0.56996478     1.02400
O1556       O  0.58507064  0.39615316  0.63774042    -0.85600
O1557       O  0.60259920  0.32910882  0.68217249    -0.82600
C1558       C  0.61300714  0.29347501  0.69157906     0.97900
O1559       O  0.61453490  0.26688840  0.67136373    -0.82700
O1560       O  0.65934162  0.28501213  0.63991154    -0.85300
C1561       C  0.67151234  0.30320986  0.62087766     1.02400
O1562       O  0.65420844  0.32707543  0.59931352    -0.78100
O1563       O  0.62899513  0.39225450  0.62380539    -0.78200
C1564       C  0.61061859  0.41252392  0.63501542     1.02300
Cr1565     Cr  0.57068307  0.33777813  0.63704731     1.93700
Cr1566     Cr  0.61220100  0.26773179  0.62524408     1.93200
Cr1567     Cr  0.60951998  0.35050110  0.59032631     1.39100
O1568       O  0.59808405  0.31866790  0.61809075    -1.23300
C1569       C  0.95861135  0.36579893  0.97196476    -0.00400
C1570       C  0.95192648  0.34895920  0.99902624    -0.12300
C1571       C  0.97861882  0.37503902  0.53267231     0.01800
C1572       C  0.51148972  0.36989887  0.53811519    -0.00500
C1573       C  0.51896703  0.37987638  0.50976384    -0.12200
C1574       C  0.98989052  0.38360297  0.97775330     0.01700
H1575       H  0.92852209  0.33412657  0.99547717     0.14700
H1576       H  0.54424287  0.38551027  0.51166600     0.18700
C1577       C  0.99945902  0.40027808  0.95154858     0.36400
C1578       C  0.96811669  0.37461864  0.56081679     0.36300
N1579       N  0.00737203  0.41347936  0.93061498    -0.44000
N1580       N  0.96005094  0.37477775  0.58360567    -0.44000
C1581       C  0.61969429  0.23319465  0.78156332    -0.00400
C1582       C  0.64329271  0.22649694  0.76650107    -0.12300
C1583       C  0.64355596  0.24885680  0.73910923     0.01800
C1584       C  0.61957164  0.27884104  0.72551567    -0.00500
C1585       C  0.59632574  0.28639105  0.74073204    -0.12200
C1586       C  0.59601122  0.26402053  0.76825392     0.01700
H1587       H  0.66187264  0.20362038  0.77614315     0.14700
H1588       H  0.57708927  0.30826147  0.72996148     0.14700
C1589       C  0.57040847  0.27320539  0.78151048     0.36400
C1590       C  0.66870359  0.23984212  0.72518042     0.36300
N1591       N  0.54978397  0.28076091  0.79193682    -0.44000
N1592       N  0.68890583  0.23220546  0.71421478    -0.44000
C1593       C  0.63063018  0.25391506  0.97163737    -0.00400
C1594       C  0.64384786  0.23073099  0.99987059    -0.12300
C1595       C  0.63484697  0.23347567  0.52809283     0.01800
C1596       C  0.61207474  0.26503685  0.52612429    -0.00500
C1597       C  0.60017576  0.28780333  0.49718894    -0.12200
C1598       C  0.60886795  0.28553557  0.97099843     0.01700
H1599       H  0.65963934  0.20536618  0.99969847     0.14700
H1600       H  0.58329198  0.31254467  0.49534629     0.14700
C1601       C  0.59301973  0.30833079  0.94163597     0.36400
C1602       C  0.64924785  0.20910821  0.55694870     0.36300
N1603       N  0.58008375  0.32648830  0.91811807    -0.44000
N1604       N  0.66098288  0.18949631  0.57994971    -0.44000
C1605       C  0.71917587  0.26167821  0.86895588    -0.00400
C1606       C  0.73030958  0.29969894  0.88292976    -0.12300
C1607       C  0.75724131  0.31903796  0.87760145     0.01800
C1608       C  0.77218672  0.30107106  0.85668526    -0.00500
C1609       C  0.75825356  0.26555272  0.83990114    -0.12200
C1610       C  0.73290179  0.24514484  0.84665008     0.01700
H1611       H  0.71947654  0.31285070  0.89969957     0.14700
H1612       H  0.76969229  0.25119029  0.82408022     0.14700
C1613       C  0.72298143  0.20588824  0.83184791     0.36400
C1614       C  0.77126964  0.35450413  0.89661173     0.36300
N1615       N  0.71568428  0.17415895  0.82029508    -0.44000
N1616       N  0.78274026  0.38274612  0.91201112    -0.44000
C1617       C  0.52899845  0.20396922  0.88094100    -0.00400
C1618       C  0.52942952  0.22224331  0.91016088    -0.12300
C1619       C  0.99960469  0.23432612  0.90773005     0.01800
C1620       C  0.96968697  0.23043768  0.88207046    -0.00500
C1621       C  0.96828148  0.20652559  0.85483492    -0.12200
C1622       C  0.49921721  0.20039020  0.85516240     0.01700
H1623       H  0.55237219  0.22522276  0.93008044     0.14700
H1624       H  0.94533302  0.20342934  0.83493958     0.14700
C1625       C  0.49803653  0.18341673  0.82433791     0.36400
C1626       C  0.00254558  0.25745165  0.93669939     0.36300
N1627       N  0.49714192  0.17000581  0.79955958    -0.44000
N1628       N  0.00500940  0.27619162  0.95980207    -0.44000
C1629       C  0.86655816  0.22792245  0.71672765    -0.00400
C1630       C  0.83934095  0.23552948  0.72650754    -0.12300
C1631       C  0.84223827  0.25755917  0.75482514     0.01800
C1632       C  0.87329577  0.27172650  0.77522190    -0.00500
C1633       C  0.90061462  0.26428957  0.76547126    -0.12200
C1634       C  0.89754634  0.24295357  0.73661549     0.01700
H1635       H  0.81528395  0.22512688  0.71145499     0.14700
H1636       H  0.92471738  0.27403967  0.78096396     0.14700
C1637       C  0.92691301  0.23606010  0.72870341     0.36400
C1638       C  0.81251647  0.26579947  0.76179280     0.36300
N1639       N  0.95058922  0.23077842  0.72254760    -0.44000
N1640       N  0.78866382  0.27239752  0.76728267    -0.44000
C1641       C  0.86563635  0.25332906  0.96363307    -0.00400
C1642       C  0.83855125  0.26474220  0.97278932    -0.12300
C1643       C  0.88330650  0.26730327  0.52571098     0.01800
C1644       C  0.85876857  0.23879360  0.52492877    -0.00500
C1645       C  0.84239529  0.21777279  0.49618413    -0.12200
C1646       C  0.89170858  0.23251072  0.98588689     0.01700
H1647       H  0.81812782  0.28086237  0.95568996     0.14700
H1648       H  0.82414949  0.19491935  0.49601223     0.14700
C1649       C  0.92034763  0.22070721  0.97816539     0.36400
C1650       C  0.90088769  0.28869166  0.55527385     0.36300
N1651       N  0.94322528  0.21115735  0.97190666    -0.44000
N1652       N  0.91456877  0.30530717  0.57933711    -0.44000
C1653       C  0.52149411  0.22376204  0.63072449    -0.00400
C1654       C  0.51404980  0.22634522  0.65983599    -0.12300
C1655       C  0.98678743  0.18943699  0.64651817     0.01800
C1656       C  0.95778576  0.19203427  0.61950791    -0.00500
C1657       C  0.95941323  0.20816775  0.59013196    -0.12200
C1658       C  0.98845596  0.22489164  0.58797672     0.01700
H1659       H  0.53021272  0.24322366  0.68027664     0.14700
H1660       H  0.93735217  0.21015487  0.56933760     0.14700
C1661       C  0.98783615  0.24485039  0.55819712     0.36400
C1662       C  0.98660322  0.17183494  0.67680420     0.36300
N1663       N  0.98720720  0.26093423  0.53432374    -0.44000
N1664       N  0.98667349  0.15739826  0.70108863    -0.44000
C1665       C  0.76351012  0.26025716  0.61550238    -0.00400
C1666       C  0.76139155  0.27175879  0.64579672    -0.12300
C1667       C  0.73215285  0.28738572  0.64832487     0.01800
C1668       C  0.70463436  0.29253463  0.62010931    -0.00500
C1669       C  0.70786441  0.28430680  0.58961313    -0.12200
C1670       C  0.73669390  0.26769262  0.58716196     0.01700
H1671       H  0.78210913  0.26678025  0.66768053     0.14700
H1672       H  0.68716446  0.28892680  0.56759864     0.14700
C1673       C  0.73813495  0.25807461  0.55535952     0.36400
C1674       C  0.73111422  0.29862677  0.67990782     0.36300
N1675       N  0.73939738  0.25052941  0.52989066    -0.44000
N1676       N  0.73032766  0.30813482  0.70516347    -0.44000
C1677       C  0.76984595  0.11446659  0.52904317    -0.00400
C1678       C  0.73789032  0.11495883  0.53026764    -0.12300
C1679       C  0.71042935  0.11462866  0.50173267     0.01800
C1680       C  0.71433537  0.12485965  0.97179782    -0.00500
C1681       C  0.74630342  0.12459204  0.97065473    -0.12200
C1682       C  0.77365222  0.10970408  0.49805081     0.01700
H1683       H  0.73421340  0.11735554  0.55363041     0.14700
H1684       H  0.75006734  0.12695885  0.94731208     0.14700
C1685       C  0.80540771  0.10406626  0.49465762     0.36400
C1686       C  0.67860925  0.11456863  0.50572146     0.36300
N1687       N  0.83096894  0.12558170  0.99191276    -0.44000
N1688       N  0.65319529  0.11440544  0.50909597    -0.44000
C1689       C  0.61317350  0.54280958  0.64537559    -0.00400
C1690       C  0.62943909  0.52437024  0.62605741    -0.12300
C1691       C  0.63089798  0.48199325  0.62383770     0.01800
C1692       C  0.61643993  0.45679310  0.64182885    -0.00500
C1693       C  0.60279482  0.47525995  0.66335870    -0.12200
C1694       C  0.60102300  0.51768063  0.66527660     0.01700
H1695       H  0.63891606  0.54302268  0.61056914     0.14700
H1696       H  0.59207049  0.45643241  0.67772974     0.14700
C1697       C  0.58579500  0.53436373  0.68726098     0.36400
C1698       C  0.64440730  0.46572797  0.60033027     0.36300
N1699       N  0.57357305  0.54754674  0.70493591    -0.44000
N1700       N  0.65505314  0.45298419  0.58126638    -0.44000
C1701       C  0.87480348  0.45487979  0.84886322    -0.00400
C1702       C  0.90124347  0.47830593  0.84674918    -0.12300
C1703       C  0.90100659  0.52091177  0.84920513     0.01800
C1704       C  0.87429316  0.54046504  0.85476245    -0.00500
C1705       C  0.84650018  0.51725901  0.85316716    -0.12200
C1706       C  0.84627458  0.47501020  0.84938501     0.01700
H1707       H  0.92316181  0.46327093  0.84594258     0.14700
H1708       H  0.82531203  0.53200572  0.85603010     0.14700
C1709       C  0.81674361  0.45259255  0.84696037     0.36400
C1710       C  0.92965930  0.54330367  0.84878319     0.36300
N1711       N  0.79301604  0.43453242  0.84454737    -0.44000
N1712       N  0.95256937  0.56118875  0.84819127    -0.44000
C1713       C  0.95257440  0.62453261  0.98100333    -0.00400
C1714       C  0.94457433  0.63728582  0.00842308    -0.12300
C1715       C  0.46957644  0.63286752  0.54019770     0.01800
C1716       C  0.50317651  0.62809706  0.54502558    -0.00500
C1717       C  0.01430759  0.62331000  0.51597203    -0.12200
C1718       C  0.98470189  0.61060943  0.98638136     0.01700
H1719       H  0.92016170  0.64826810  0.00529375     0.14700
H1720       H  0.04014674  0.62504245  0.51897015     0.14700
C1721       C  0.99496563  0.59685086  0.95990828     0.36400
C1722       C  0.45778669  0.63847845  0.56721862     0.36300
N1723       N  0.00316053  0.58590136  0.93863079    -0.44000
N1724       N  0.44828372  0.64310127  0.58883301    -0.44000
C1725       C  0.61961083  0.95497446  0.86230925    -0.00400
C1726       C  0.64013224  0.97597422  0.84817195    -0.12300
C1727       C  0.64113816  0.01888050  0.84711273     0.01800
C1728       C  0.62106109  0.04211522  0.86011495    -0.00500
C1729       C  0.59899811  0.02108209  0.87205380    -0.12200
C1730       C  0.59839985  0.97850826  0.87372791     0.01700
H1731       H  0.65673847  0.95887675  0.83932547     0.14700
H1732       H  0.58339266  0.03815625  0.88224048     0.14700
C1733       C  0.57825784  0.96070636  0.89078985     0.36400
C1734       C  0.66485589  0.03803582  0.83494060     0.36300
N1735       N  0.56241832  0.94735791  0.90519512    -0.44000
N1736       N  0.68394776  0.05336900  0.82525279    -0.44000
C1737       C  0.62138677  0.76793721  0.78620116    -0.00400
C1738       C  0.64406454  0.77319797  0.76984231    -0.12300
C1739       C  0.64257006  0.74872294  0.74294268     0.01800
C1740       C  0.61838715  0.71767150  0.73216846    -0.00500
C1741       C  0.59737086  0.71065969  0.74990789    -0.12200
C1742       C  0.59773529  0.73617925  0.77567411     0.01700
H1743       H  0.66354983  0.79550353  0.77864057     0.14700
H1744       H  0.57892071  0.68697989  0.74206434     0.14700
C1745       C  0.57268167  0.72964130  0.79037950     0.36400
C1746       C  0.66645476  0.75567061  0.72689213     0.36300
N1747       N  0.55237748  0.72430936  0.80180318    -0.44000
N1748       N  0.68569254  0.76121127  0.71414714    -0.44000
C1749       C  0.58830833  0.74341876  0.52978941    -0.00400
C1750       C  0.57727900  0.72147720  0.50069970    -0.12300
C1751       C  0.60450320  0.71844266  0.97996190     0.01800
C1752       C  0.61122357  0.76026166  0.97733003    -0.00500
C1753       C  0.60385436  0.78810354  0.99814656    -0.12200
C1754       C  0.60686983  0.77951452  0.53115542     0.01700
H1755       H  0.56219625  0.69453441  0.49894107     0.14700
H1756       H  0.60731974  0.82041643  0.99543994     0.14700
C1757       C  0.61671528  0.80629542  0.55898957     0.36400
C1758       C  0.61107968  0.68772928  0.95941152     0.36300
N1759       N  0.62459784  0.82783331  0.58119830    -0.44000
N1760       N  0.61616621  0.66290646  0.94303032    -0.44000
C1761       C  0.71274246  0.71991879  0.88295587    -0.00400
C1762       C  0.71609263  0.71926216  0.85180013    -0.12300
C1763       C  0.74382936  0.70292708  0.84688334     0.01800
C1764       C  0.76872625  0.68618613  0.87325931    -0.00500
C1765       C  0.76365374  0.68228181  0.90351618    -0.12200
C1766       C  0.73580182  0.69890703  0.90852634     0.01700
H1767       H  0.69800730  0.73432012  0.83159013     0.14700
H1768       H  0.78279568  0.66935695  0.92402933     0.14700
C1769       C  0.73296067  0.69719216  0.94056626     0.36400
C1770       C  0.74718480  0.70579382  0.81505893     0.36300
N1771       N  0.73059286  0.69558729  0.96623136    -0.44000
N1772       N  0.74982382  0.70782532  0.78951997    -0.44000
C1773       C  0.52478959  0.78426612  0.87380584    -0.00400
C1774       C  0.51537181  0.74384326  0.86530371    -0.12300
C1775       C  0.98685652  0.73055797  0.86970598     0.01800
C1776       C  0.96686394  0.75426142  0.88257779    -0.00500
C1777       C  0.97468694  0.79535182  0.88888846    -0.12200
C1778       C  0.00318659  0.81216940  0.88498128     0.01700
H1779       H  0.53125277  0.72410048  0.85750617     0.14700
H1780       H  0.95949437  0.81381859  0.89861844     0.14700
C1781       C  0.01134908  0.85335217  0.89579337     0.36400
C1782       C  0.98027124  0.68798228  0.86231719     0.36300
N1783       N  0.01749277  0.88614270  0.90535851    -0.44000
N1784       N  0.97532586  0.65378704  0.85663111    -0.44000
C1785       C  0.85938025  0.95375525  0.64968027    -0.00400
C1786       C  0.83498285  0.97643061  0.65656112    -0.12300
C1787       C  0.83482141  0.01896499  0.65529510     0.01800
C1788       C  0.86013373  0.04000590  0.64816782    -0.00500
C1789       C  0.88620693  0.01768547  0.64449216    -0.12200
C1790       C  0.88606911  0.97508487  0.64501984     0.01700
H1791       H  0.81433022  0.96096996  0.66034003     0.14700
H1792       H  0.90579317  0.03361315  0.63900740     0.14700
C1793       C  0.91259355  0.95460659  0.63847430     0.36400
C1794       C  0.80623124  0.03969846  0.65717617     0.36300
N1795       N  0.93384439  0.93847664  0.63301114    -0.44000
N1796       N  0.78309649  0.05614623  0.65826476    -0.44000
C1797       C  0.86385709  0.77388004  0.72929887    -0.00400
C1798       C  0.88524510  0.74039509  0.73856687    -0.12300
C1799       C  0.88931055  0.71854053  0.76748633     0.01800
C1800       C  0.87176878  0.72993276  0.78817631    -0.00500
C1801       C  0.85132219  0.76433598  0.77942126    -0.12200
C1802       C  0.84724449  0.78610461  0.75053711     0.01700
H1803       H  0.89796795  0.73014586  0.72240151     0.14700
H1804       H  0.83792040  0.77423168  0.79506008     0.14700
C1805       C  0.82355795  0.81843968  0.74200303     0.36400
C1806       C  0.91028532  0.68341604  0.77429986     0.36300
N1807       N  0.80434340  0.84410480  0.73504765    -0.44000
N1808       N  0.92698983  0.65515866  0.77959642    -0.44000
C1809       C  0.85820032  0.74178954  0.97193387    -0.00400
C1810       C  0.85265954  0.71480829  0.99465884    -0.12300
C1811       C  0.87519243  0.73689629  0.53063888     0.01800
C1812       C  0.85049350  0.76606033  0.52834524    -0.00500
C1813       C  0.83575594  0.78639343  0.49867204    -0.12200
C1814       C  0.85558340  0.78391059  0.97611694     0.01700
H1815       H  0.85463925  0.68228683  0.99181342     0.14700
H1816       H  0.81713411  0.80906983  0.49661236     0.14700
C1817       C  0.86125857  0.81323327  0.95381337     0.36400
C1818       C  0.89319629  0.71615067  0.56048918     0.36300
N1819       N  0.86599007  0.83694744  0.93615900    -0.44000
N1820       N  0.90794821  0.69964462  0.58430709    -0.44000
C1821       C  0.94571013  0.79325034  0.62580774    -0.00400
C1822       C  0.96887299  0.78352218  0.65578823    -0.12300
C1823       C  0.00027330  0.77136727  0.65777766     0.01800
C1824       C  0.50798578  0.76572768  0.63627937    -0.00500
C1825       C  0.48994994  0.78831924  0.60890932    -0.12200
C1826       C  0.95541111  0.79339760  0.59763235     0.01700
H1827       H  0.96251683  0.78578791  0.67779595     0.14700
H1828       H  0.49880703  0.79115008  0.58845146     0.14700
C1829       C  0.93420239  0.80740367  0.56633905     0.36400
C1830       C  0.02432251  0.76784014  0.68959415     0.36300
N1831       N  0.91777156  0.81925540  0.54121563    -0.44000
N1832       N  0.04315506  0.76730858  0.71554823    -0.44000
C1833       C  0.69327408  0.70510272  0.62350484    -0.00400
C1834       C  0.71798260  0.70918613  0.65364501    -0.12300
C1835       C  0.74998437  0.71919079  0.65546330     0.01800
C1836       C  0.75757216  0.72681731  0.62675360    -0.00500
C1837       C  0.73360673  0.71961392  0.59659052    -0.12200
C1838       C  0.70168996  0.70843154  0.59468688     0.01700
H1839       H  0.71221345  0.70496478  0.67585271     0.14700
H1840       H  0.73913124  0.72559794  0.57445061     0.14700
C1841       C  0.67782295  0.70319502  0.56267030     0.36400
C1842       C  0.77460334  0.72177181  0.68725018     0.36300
N1843       N  0.65903027  0.69864912  0.53688954    -0.44000
N1844       N  0.79404653  0.72295569  0.71293895    -0.44000
C1845       C  0.75760875  0.86540570  0.54128750    -0.00400
C1846       C  0.76966448  0.87186641  0.51518617    -0.12300
C1847       C  0.74505920  0.87268250  0.98293136     0.01800
C1848       C  0.71097121  0.86801231  0.97540989    -0.00500
C1849       C  0.69839959  0.86576434  0.00145627    -0.12200
C1850       C  0.72367022  0.85845035  0.53370194     0.01700
H1851       H  0.79565773  0.87687018  0.52018459     0.14700
H1852       H  0.67227197  0.86192114  0.99626362     0.14700
C1853       C  0.70954128  0.85015628  0.55879250     0.36400
C1854       C  0.75979564  0.87461625  0.95772455     0.36300
N1855       N  0.69830299  0.84313185  0.57892111    -0.44000
N1856       N  0.77172265  0.87590636  0.93758425    -0.44000
loop_ 
_geom_bond_atom_site_label_1 
_geom_bond_atom_site_label_2 
_geom_bond_distance 
_geom_bond_site_symmetry_2 
_ccdc_geom_bond_type 
O1          Cr19   2.027       .  S
O1            C9   1.271       .  A
O2          Cr19   1.966       .  S
O2            C3   1.251       .  A
C3            O4   1.265       .  A
C3          C444   1.479       .  S
O4          Cr20   2.015       .  S
O5          Cr20   1.985       .  S
O5            C6   1.260       .  A
C6            O7   1.257       .  A
C6          C420   1.478       .  S
O7          Cr21   1.971       .  S
O8          Cr21   1.996       .  S
O8            C9   1.263       .  A
C9          C453   1.507       .  S
O10         Cr19   2.001       .  S
O10          C18   1.263       .  A
O11         Cr19   2.025       .  S
O11          C12   1.280       .  A
C12          O13   1.267       .  A
C12         C405   1.505       .  S
O13         Cr20   1.992       .  S
O14         Cr20   1.992       .  S
O14          C15   1.267       .  A
C15          O16   1.261       .  A
C15         C429   1.491       .  S
O16         Cr21   1.994       .  S
O17         Cr21   1.983       .  S
O17          C18   1.259       .  A
C18         C393   1.494       .  S
Cr19         O22   1.778       .  S
Cr20         O22   1.770       .  S
Cr21         O22   1.784       .  S
O23         Cr41   2.025       .  S
O23          C31   1.270       .  A
O24         Cr41   1.977       .  S
O24          C25   1.256       .  A
C25          O26   1.265       .  A
C25         C369   1.472       .  S
O26         Cr42   2.006       .  S
O27         Cr42   1.955       .  S
O27          C28   1.252       .  A
C28          O29   1.258       .  A
C28         C360   1.465       .  S
O29         Cr43   1.968       .  S
O30         Cr43   1.994       .  S
O30          C31   1.261       .  A
C31         C456   1.499       .  S
O32         Cr41   2.012       .  S
O32          C40   1.266       .  A
O33         Cr41   2.035       .  S
O33          C34   1.280       .  A
C34          O35   1.256       .  A
C34         C345   1.495       .  S
O35         Cr42   1.956       .  S
O36         Cr42   1.996       .  S
O36          C37   1.268       .  A
C37          O38   1.260       .  A
C37         C381   1.496       .  S
O38         Cr43   1.988       .  S
O39         Cr43   1.980       .  S
O39          C40   1.260       .  A
C40         C333   1.500       .  S
Cr41         O44   1.778       .  S
Cr42         O44   1.776       .  S
Cr43         O44   1.783       .  S
O45         Cr63   1.950       .  S
O45          C53   1.253       .  A
O46         Cr63   1.978       .  S
O46          C47   1.264       .  A
C47          O48   1.265       .  A
C47         C417   1.462       .  S
O48         Cr64   1.985       .  S
O49         Cr64   2.033       .  S
O49          C50   1.262       .  A
C50          O51   1.246       .  A
C50         C384   1.478       .  S
O51         Cr65   1.953       .  S
O52         Cr65   2.053       .  S
O52          C53   1.278       .  A
C53         C321   1.513       .  S
O54         Cr63   2.001       .  S
O54          C62   1.265       .  A
O55         Cr63   1.984       .  S
O55          C56   1.262       .  A
C56          O57   1.268       .  A
C56         C372   1.484       .  S
O57         Cr64   2.014       .  S
O58         Cr64   1.961       .  S
O58          C59   1.263       .  A
C59          O60   1.285       .  A
C59         C408   1.508       .  S
O60         Cr65   2.072       .  S
O61         Cr65   1.986       .  S
O61          C62   1.260       .  A
C62         C312   1.492       .  S
Cr63         O66   1.774       .  S
Cr64         O66   1.786       .  S
Cr65         O66   1.772       .  S
O67         Cr85   1.989       .  S
O67          C75   1.258       .  A
O68         Cr85   1.977       .  S
O68          C69   1.259       .  A
C69          O70   1.255       .  A
C69         C357   1.470       .  S
O70         Cr86   1.963       .  S
O71         Cr86   2.011       .  S
O71          C72   1.266       .  A
C72          O73   1.258       .  A
C72         C432   1.490       .  S
O73         Cr87   1.976       .  S
O74         Cr87   2.017       .  S
O74          C75   1.267       .  A
C75         C324   1.506       .  S
O76         Cr85   1.985       .  S
O76          C84   1.263       .  A
O77         Cr85   1.991       .  S
O77          C78   1.261       .  A
C78          O79   1.267       .  A
C78         C441   1.483       .  S
O79         Cr86   1.993       .  S
O80         Cr86   1.968       .  S
O80          C81   1.258       .  A
C81          O82   1.278       .  A
C81         C348   1.489       .  S
O82         Cr87   2.022       .  S
O83         Cr87   2.018       .  S
O83          C84   1.268       .  A
C84         C297   1.499       .  S
Cr85         O88   1.781       .  S
Cr86         O88   1.774       .  S
Cr87         O88   1.771       .  S
O89        Cr107   1.958       .  S
O89          C97   1.255       .  A
O90        Cr107   1.962       .  S
O90          C91   1.257       .  A
C91          O92   1.263       .  A
C91         C252   1.442       .  S
O92        Cr108   1.983       .  S
O93        Cr108   2.031       .  S
O93          C94   1.263       .  A
C94          O95   1.252       .  A
C94         C273   1.481       .  S
O95        Cr109   1.972       .  S
O96        Cr109   2.047       .  S
O96          C97   1.276       .  A
C97         C285   1.508       .  S
O98        Cr107   1.981       .  S
O98         C106   1.259       .  A
O99        Cr107   1.988       .  S
O99         C100   1.263       .  A
C100        O101   1.269       .  A
C100        C264   1.485       .  S
O101       Cr108   2.024       .  S
O102       Cr108   1.962       .  S
O102        C103   1.261       .  A
C103        O104   1.282       .  A
C103        C237   1.502       .  S
O104       Cr109   2.054       .  S
O105       Cr109   1.987       .  S
O105        C106   1.261       .  A
C106        C396   1.479       .  S
Cr107       O110   1.773       .  S
Cr108       O110   1.778       .  S
Cr109       O110   1.772       .  S
O111       Cr129   1.969       .  S
O111        C119   1.257       .  A
O112       Cr129   1.965       .  S
O112        C113   1.260       .  A
C113        O114   1.259       .  A
C113        C201   1.440       .  S
O114       Cr130   1.967       .  S
O115       Cr130   2.015       .  S
O115        C116   1.260       .  A
C116        O117   1.256       .  A
C116        C213   1.478       .  S
O117       Cr131   1.974       .  S
O118       Cr131   2.052       .  S
O118        C119   1.277       .  A
C119        C288   1.514       .  S
O120       Cr129   1.988       .  S
O120        C128   1.261       .  A
O121       Cr129   1.993       .  S
O121        C122   1.263       .  A
C122        O123   1.262       .  A
C122        C225   1.473       .  S
O123       Cr130   1.994       .  S
O124       Cr130   1.954       .  S
O124        C125   1.256       .  A
C125        O126   1.280       .  A
C125        C189   1.504       .  S
O126       Cr131   2.058       .  S
O127       Cr131   1.993       .  S
O127        C128   1.263       .  A
C128        C336   1.484       .  S
Cr129       O132   1.776       .  S
Cr130       O132   1.782       .  S
Cr131       O132   1.775       .  S
O133       Cr151   2.045       .  S
O133        C141   1.277       .  A
O134       Cr151   1.979       .  S
O134        C135   1.255       .  A
C135        O136   1.256       .  A
C135        C228   1.485       .  S
O136       Cr152   2.006       .  S
O137       Cr152   1.991       .  S
O137        C138   1.264       .  A
C138        O139   1.254       .  A
C138        C249   1.455       .  S
O139       Cr153   1.951       .  S
O140       Cr153   1.972       .  S
O140        C141   1.260       .  A
C141        C177   1.517       .  S
O142       Cr151   2.006       .  S
O142        C150   1.264       .  A
O143       Cr151   2.057       .  S
O143        C144   1.283       .  A
C144        O145   1.260       .  A
C144        C240   1.500       .  S
O145       Cr152   1.954       .  S
O146       Cr152   1.988       .  S
O146        C147   1.265       .  A
C147        O148   1.269       .  A
C147        C216   1.485       .  S
O148       Cr153   2.000       .  S
O149       Cr153   1.976       .  S
O149        C150   1.258       .  A
C150        C309   1.490       .  S
Cr151       O154   1.777       .  S
Cr152       O154   1.776       .  S
Cr153       O154   1.779       .  S
O155       Cr173   2.012       .  S
O155        C163   1.266       .  A
O156       Cr173   1.974       .  S
O156        C157   1.259       .  A
C157        O158   1.267       .  A
C157        C261   1.484       .  S
O158       Cr174   2.011       .  S
O159       Cr174   1.991       .  S
O159        C160   1.261       .  A
C160        O161   1.255       .  A
C160        C204   1.479       .  S
O161       Cr175   1.962       .  S
O162       Cr175   2.007       .  S
O162        C163   1.265       .  A
C163        C180   1.517       .  S
O164       Cr173   2.030       .  S
O164        C172   1.270       .  A
O165       Cr173   2.021       .  S
O165        C166   1.279       .  A
C166        O167   1.262       .  A
C166        C192   1.495       .  S
O167       Cr174   1.979       .  S
O168       Cr174   1.996       .  S
O168        C169   1.265       .  A
C169        O170   1.265       .  A
C169        C276   1.486       .  S
O170       Cr175   2.003       .  S
O171       Cr175   1.975       .  S
O171        C172   1.258       .  A
C172        C300   1.501       .  S
Cr173       O176   1.776       .  S
Cr174       O176   1.776       .  S
Cr175       O176   1.780       .  S
C177        C178   1.416       .  A
C177        C182   1.418       .  A
C178        C643   1.409       .  A
C178        H183   1.084       .  S
C179        C642   1.409       .  A
C179       C1108   1.409       .  A
C179        C186   1.442       .  S
C180        C181   1.416       .  A
C180       C1107   1.418   1_455  A
C181       C1574   1.416   1_454  A
C181        H184   1.085       .  S
C182       C1573   1.413       .  A
C182        C185   1.443       .  S
C185        N187   1.157       .  T
C186        N188   1.157       .  T
C189        C190   1.403       .  A
C189        C194   1.428       .  A
C190        C191   1.404       .  A
C190        H195   1.084       .  S
C191        C192   1.421       .  A
C191        C198   1.445       .  S
C192        C193   1.401       .  A
C193        C194   1.409       .  A
C193        H196   1.085       .  S
C194        C197   1.445       .  S
C197        N199   1.158       .  T
C198        N200   1.157       .  T
C201        C202   1.393       .  A
C201        C206   1.406       .  A
C202        C667   1.383       .  A
C202        H207   1.086       .  S
C203        C204   1.419       .  A
C203        C666   1.391   1_554  A
C203        C210   1.445       .  S
C204        C205   1.409   1_554  A
C205        C670   1.398       .  A
C205        H208   1.085       .  S
C206        C669   1.394       .  A
C206        C209   1.445       .  S
C209        N211   1.157       .  T
C210        N212   1.157       .  T
C213        C214   1.405       .  A
C213        C218   1.409       .  A
C214        C215   1.411       .  A
C214        H219   1.085       .  S
C215        C216   1.416       .  A
C215        C222   1.442       .  S
C216        C217   1.405       .  A
C217        C218   1.394       .  A
C217        H220   1.085       .  S
C218        C221   1.445       .  S
C221        N223   1.157       .  T
C222        N224   1.157       .  T
C225        C226   1.406       .  A
C225        C230   1.406   1_455  A
C226       C1155   1.397       .  A
C226        H231   1.084       .  S
C227        C228   1.410       .  A
C227       C1154   1.396       .  A
C227        C234   1.445       .  S
C228        C229   1.412       .  A
C229       C1158   1.410       .  A
C229        H232   1.084       .  S
C230       C1157   1.407       .  A
C230        C233   1.443       .  S
C233        N235   1.157       .  T
C234        N236   1.157       .  T
C237        C238   1.405       .  A
C237        C242   1.422       .  A
C238        C239   1.405       .  A
C238        H243   1.084       .  S
C239        C240   1.422       .  A
C239        C246   1.445       .  S
C240        C241   1.404       .  A
C241        C242   1.408       .  A
C241        H244   1.085       .  S
C242        C245   1.444       .  S
C245        N247   1.157       .  T
C246        N248   1.157       .  T
C249        C250   1.409       .  A
C249        C254   1.403       .  A
C250        C715   1.386       .  A
C250        H255   1.085       .  S
C251        C252   1.405       .  A
C251        C714   1.392       .  A
C251        C258   1.443       .  S
C252        C253   1.399       .  A
C253        C718   1.392   1_554  A
C253        H256   1.085       .  S
C254        C717   1.392       .  A
C254        C257   1.444       .  S
C257        N259   1.157       .  T
C258        N260   1.156       .  T
C261        C262   1.410       .  A
C261       C1194   1.411   1_455  A
C262       C1191   1.396   1_455  A
C262        H267   1.083       .  S
C263        C264   1.406       .  A
C263       C1190   1.409       .  A
C263        C270   1.443       .  S
C264        C265   1.408       .  A
C265        C266   1.404       .  A
C265        H268   1.085       .  S
C266       C1189   1.407       .  A
C266        C269   1.445       .  S
C269        N271   1.157       .  T
C270        N272   1.157       .  T
C273        C274   1.408       .  A
C273        C278   1.408       .  A
C274        C275   1.408       .  A
C274        H279   1.084       .  S
C275        C276   1.411       .  A
C275        C282   1.443       .  S
C276        C277   1.407       .  A
C277        C278   1.400       .  A
C277        H280   1.085       .  S
C278        C281   1.444       .  S
C281        N283   1.157       .  T
C282        N284   1.157       .  T
C285        C286   1.405       .  A
C285        C290   1.426   1_554  A
C286        C287   1.409       .  A
C286        H291   1.084       .  S
C287        C752   1.423   1_554  A
C287        C294   1.445       .  S
C288        C289   1.405       .  A
C288        C751   1.425       .  A
C289        C754   1.412       .  A
C289        H292   1.084       .  S
C290        C753   1.406       .  A
C290        C293   1.445       .  S
C293        N759   1.157       .  T
C294        N296   1.157       .  T
N295        C757   1.157       .  T
C297        C298   1.405       .  A
C297        C302   1.416       .  A
C298        C299   1.404       .  A
C298        H303   1.085       .  S
C299        C300   1.420       .  A
C299        C306   1.444       .  S
C300        C301   1.408       .  A
C301        C302   1.408       .  A
C301        H304   1.084       .  S
C302        C305   1.444       .  S
C305        N307   1.157       .  T
C306        N308   1.157       .  T
C309        C310   1.405       .  A
C309        C314   1.415       .  A
C310        C311   1.409       .  A
C310        H315   1.085       .  S
C311        C312   1.418       .  A
C311        C318   1.443       .  S
C312        C313   1.403       .  A
C313        C314   1.401       .  A
C313        H316   1.085       .  S
C314        C317   1.445       .  S
C317        N319   1.157       .  T
C318        N320   1.157       .  T
C321        C322   1.419       .  A
C321        C326   1.413       .  A
C322       C1715   1.408       .  A
C322        H327   1.083       .  S
C323        C324   1.412   1_655  A
C323       C1714   1.405       .  A
C323        C330   1.445       .  S
C324       C1253   1.416       .  A
C325       C1252   1.413       .  A
C325        C790   1.409   1_554  A
C325        H328   1.084       .  S
C326        C789   1.411       .  A
C326        C329   1.443       .  S
C329        N331   1.157       .  T
C330        N332   1.158       .  T
C333        C334   1.411       .  A
C333        C338   1.419       .  A
C334        C335   1.404   1_565  A
C334        H339   1.084       .  S
C335        C336   1.410       .  A
C335        C342   1.445       .  S
C336        C337   1.404       .  A
C337        C338   1.404   1_545  A
C337        H340   1.085       .  S
C338        C341   1.444       .  S
C341        N343   1.157       .  T
C342        N344   1.157       .  T
C345        C346   1.401       .  A
C345        C350   1.427       .  A
C346        C347   1.409       .  A
C346        H351   1.084       .  S
C347        C348   1.424       .  A
C347        C354   1.445       .  S
C348        C349   1.394       .  A
C349        C350   1.400       .  A
C349        H352   1.085       .  S
C350        C353   1.446       .  S
C353        N355   1.157       .  T
C354        N356   1.157       .  T
C357        C358   1.399   1_554  A
C357        C362   1.416       .  A
C358        C823   1.391       .  A
C358        H363   1.085       .  S
C359        C360   1.417       .  A
C359        C822   1.388       .  A
C359        C366   1.446       .  S
C360        C361   1.401       .  A
C361        C826   1.390       .  A
C361        H364   1.085       .  S
C362        C825   1.392   1_554  A
C362        C365   1.446       .  S
C365        N367   1.157       .  T
C366        N368   1.157       .  T
C369        C370   1.411       .  A
C369        C374   1.406       .  A
C370        C371   1.411       .  A
C370        H375   1.084       .  S
C371        C372   1.408       .  A
C371        C378   1.442       .  S
C372        C373   1.407       .  A
C373        C374   1.395       .  A
C373        H376   1.082       .  S
C374        C377   1.445       .  S
C377        N379   1.157       .  T
C378        N380   1.157       .  T
C381        C382   1.402       .  A
C381       C1314   1.426       .  A
C382       C1311   1.398   1_455  A
C382        H387   1.082       .  S
C383        C384   1.415       .  A
C383       C1310   1.396       .  A
C383        C390   1.445       .  S
C384        C385   1.397       .  A
C385        C386   1.405       .  A
C385        H388   1.085       .  S
C386       C1309   1.425       .  A
C386        C389   1.443       .  S
C389        N391   1.157       .  T
C390        N392   1.157       .  T
C393        C394   1.411       .  A
C393        C398   1.417       .  A
C394        C395   1.400   1_565  A
C394        H399   1.084       .  S
C395        C396   1.410       .  A
C395        C402   1.445       .  S
C396        C397   1.404       .  A
C397        C398   1.402   1_545  A
C397        H400   1.085       .  S
C398        C401   1.444       .  S
C401        N403   1.157       .  T
C402        N404   1.157       .  T
C405        C406   1.415       .  A
C405        C410   1.411       .  A
C406        C407   1.408       .  A
C406        H411   1.085       .  S
C407        C408   1.412       .  A
C407        C414   1.443       .  S
C408        C409   1.417       .  A
C409        C410   1.411       .  A
C409        H412   1.084       .  S
C410        C413   1.443       .  S
C413        N415   1.157       .  T
C414        N416   1.157       .  T
C417        C418   1.398       .  A
C417        C422   1.406       .  A
C418        C883   1.388       .  A
C418        H423   1.085       .  S
C419        C420   1.420       .  A
C419        C882   1.391       .  A
C419        C426   1.445       .  S
C420        C421   1.407   1_554  A
C421        C886   1.400       .  A
C421        H424   1.084       .  S
C422        C885   1.401       .  A
C422        C425   1.443       .  S
C425        N427   1.157       .  T
C426        N428   1.157       .  T
C429        C430   1.397       .  A
C429        C434   1.423       .  A
C430        C431   1.397       .  A
C430        H435   1.085       .  S
C431       C1360   1.420       .  A
C431        C438   1.441       .  S
C432        C433   1.404   1_455  A
C432       C1359   1.420   1_455  A
C433       C1362   1.409       .  A
C433        H436   1.085       .  S
C434       C1361   1.409       .  A
C434        C437   1.444       .  S
C437        N439   1.157       .  T
C438        N440   1.156       .  T
C441        C442   1.397       .  A
C441        C446   1.421       .  A
C442        C443   1.397       .  A
C442        H447   1.085       .  S
C443        C444   1.419       .  A
C443        C450   1.443       .  S
C444        C445   1.398       .  A
C445        C446   1.403       .  A
C445        H448   1.085       .  S
C446        C449   1.443       .  S
C449        N451   1.157       .  T
C450        N452   1.156       .  T
C453        C454   1.414       .  A
C453        C458   1.414       .  A
C454        C919   1.408   1_554  A
C454        H459   1.084       .  S
C455        C456   1.407       .  A
C455        C918   1.411       .  A
C455        C462   1.442       .  S
C456        C457   1.410       .  A
C457        C922   1.408       .  A
C457        H460   1.081       .  S
C458        C921   1.412   1_554  A
C458        C461   1.443       .  S
C461        N463   1.157       .  T
C462        N464   1.157       .  T
O465       Cr483   2.017       .  S
O465        C473   1.269       .  A
O466       Cr483   1.972       .  S
O466        C467   1.255       .  A
C467        O468   1.266       .  A
C467        C908   1.480       .  S
O468       Cr484   2.013       .  S
O469       Cr484   1.978       .  S
O469        C470   1.259       .  A
C470        O471   1.257       .  A
C470        C884   1.481       .  S
O471       Cr485   1.970       .  S
O472       Cr485   1.995       .  S
O472        C473   1.262       .  A
C473        C917   1.508       .  S
O474       Cr483   2.012       .  S
O474        C482   1.266       .  A
O475       Cr483   2.023       .  S
O475        C476   1.279       .  A
C476        O477   1.265       .  A
C476        C869   1.502       .  S
O477       Cr484   1.986       .  S
O478       Cr484   1.986       .  S
O478        C479   1.267       .  A
C479        O480   1.260       .  A
C479        C893   1.486       .  S
O480       Cr485   1.990       .  S
O481       Cr485   1.977       .  S
O481        C482   1.258       .  A
C482        C857   1.497       .  S
Cr483       O486   1.774       .  S
Cr484       O486   1.768       .  S
Cr485       O486   1.783       .  S
O487       Cr505   2.016       .  S
O487        C495   1.269       .  A
O488       Cr505   1.979       .  S
O488        C489   1.255       .  A
C489        O490   1.264       .  A
C489        C833   1.476       .  S
O490       Cr506   2.008       .  S
O491       Cr506   1.954       .  S
O491        C492   1.251       .  A
C492        O493   1.259       .  A
C492        C824   1.474       .  S
O493       Cr507   1.972       .  S
O494       Cr507   1.999       .  S
O494        C495   1.264       .  A
C495        C920   1.503       .  S
O496       Cr505   2.026       .  S
O496        C504   1.267       .  A
O497       Cr505   2.031       .  S
O497        C498   1.281       .  A
C498        O499   1.257       .  A
C498        C809   1.490       .  S
O499       Cr506   1.957       .  S
O500       Cr506   1.996       .  S
O500        C501   1.269       .  A
C501        O502   1.262       .  A
C501        C845   1.502       .  S
O502       Cr507   1.998       .  S
O503       Cr507   1.987       .  S
O503        C504   1.261       .  A
C504        C797   1.510       .  S
Cr505       O508   1.786       .  S
Cr506       O508   1.779       .  S
Cr507       O508   1.787       .  S
O509       Cr527   1.954       .  S
O509        C517   1.253       .  A
O510       Cr527   1.988       .  S
O510        C511   1.264       .  A
C511        O512   1.264       .  A
C511        C881   1.455       .  S
O512       Cr528   1.976       .  S
O513       Cr528   2.044       .  S
O513        C514   1.267       .  A
C514        O515   1.248       .  A
C514        C848   1.484       .  S
O515       Cr529   1.951       .  S
O516       Cr529   2.050       .  S
O516        C517   1.277       .  A
C517        C785   1.509       .  S
O518       Cr527   2.009       .  S
O518        C526   1.266       .  A
O519       Cr527   1.982       .  S
O519        C520   1.261       .  A
C520        O521   1.268       .  A
C520        C836   1.481       .  S
O521       Cr528   2.020       .  S
O522       Cr528   1.959       .  S
O522        C523   1.261       .  A
C523        O524   1.280       .  A
C523        C872   1.498       .  S
O524       Cr529   2.060       .  S
O525       Cr529   1.967       .  S
O525        C526   1.256       .  A
C526        C776   1.479       .  S
Cr527       O530   1.774       .  S
Cr528       O530   1.779       .  S
Cr529       O530   1.771       .  S
O531       Cr549   1.985       .  S
O531        C539   1.256       .  A
O532       Cr549   1.969       .  S
O532        C533   1.258       .  A
C533        O534   1.256       .  A
C533        C821   1.461       .  S
O534       Cr550   1.964       .  S
O535       Cr550   2.003       .  S
O535        C536   1.264       .  A
C536        O537   1.259       .  A
C536        C896   1.479       .  S
O537       Cr551   1.985       .  S
O538       Cr551   2.031       .  S
O538        C539   1.269       .  A
C539        C788   1.501       .  S
O540       Cr549   1.977       .  S
O540        C548   1.262       .  A
O541       Cr549   1.989       .  S
O541        C542   1.258       .  A
C542        O543   1.267       .  A
C542        C905   1.484       .  S
O543       Cr550   1.993       .  S
O544       Cr550   1.968       .  S
O544        C545   1.259       .  A
C545        O546   1.276       .  A
C545        C812   1.486       .  S
O546       Cr551   2.020       .  S
O547       Cr551   2.014       .  S
O547        C548   1.269       .  A
C548        C761   1.492       .  S
Cr549       O552   1.778       .  S
Cr550       O552   1.768       .  S
Cr551       O552   1.772       .  S
O553       Cr571   1.976       .  S
O553        C561   1.259       .  A
O554       Cr571   1.958       .  S
O554        C555   1.253       .  A
C555        O556   1.264       .  A
C555        C716   1.455       .  S
O556       Cr572   1.987       .  S
O557       Cr572   2.040       .  S
O557        C558   1.267       .  A
C558        O559   1.252       .  A
C558        C737   1.490       .  S
O559       Cr573   1.971       .  S
O560       Cr573   2.048       .  S
O560        C561   1.278       .  A
C561        C749   1.514       .  S
O562       Cr571   1.984       .  S
O562        C570   1.260       .  A
O563       Cr571   1.988       .  S
O563        C564   1.267       .  A
C564        O565   1.272       .  A
C564        C728   1.484       .  S
O565       Cr572   2.024       .  S
O566       Cr572   1.959       .  S
O566        C567   1.258       .  A
C567        O568   1.282       .  A
C567        C701   1.510       .  S
O568       Cr573   2.060       .  S
O569       Cr573   1.993       .  S
O569        C570   1.262       .  A
C570        C860   1.483       .  S
Cr571       O574   1.777       .  S
Cr572       O574   1.774       .  S
Cr573       O574   1.773       .  S
O575       Cr593   1.959       .  S
O575        C583   1.256       .  A
O576       Cr593   1.977       .  S
O576        C577   1.260       .  A
C577        O578   1.262       .  A
C577        C665   1.455       .  S
O578       Cr594   1.983       .  S
O579       Cr594   2.006       .  S
O579        C580   1.258       .  A
C580        O581   1.256       .  A
C580        C677   1.473       .  S
O581       Cr595   1.972       .  S
O582       Cr595   2.044       .  S
O582        C583   1.277       .  A
C583        C752   1.503       .  S
O584       Cr593   1.990       .  S
O584        C592   1.261       .  A
O585       Cr593   1.988       .  S
O585        C586   1.262       .  A
C586        O587   1.263       .  A
C586        C689   1.469       .  S
O587       Cr594   1.992       .  S
O588       Cr594   1.956       .  S
O588        C589   1.258       .  A
C589        O590   1.279       .  A
C589        C653   1.504       .  S
O590       Cr595   2.051       .  S
O591       Cr595   2.002       .  S
O591        C592   1.264       .  A
C592        C800   1.496       .  S
Cr593       O596   1.774       .  S
Cr594       O596   1.783       .  S
Cr595       O596   1.778       .  S
O597       Cr615   2.052       .  S
O597        C605   1.279       .  A
O598       Cr615   1.972       .  S
O598        C599   1.253       .  A
C599        O600   1.257       .  A
C599        C692   1.474       .  S
O600       Cr616   2.004       .  S
O601       Cr616   1.988       .  S
O601        C602   1.263       .  A
C602        O603   1.254       .  A
C602        C713   1.443       .  S
O603       Cr617   1.958       .  S
O604       Cr617   1.970       .  S
O604        C605   1.259       .  A
C605        C641   1.517       .  S
O606       Cr615   1.994       .  S
O606        C614   1.261       .  A
O607       Cr615   2.062       .  S
O607        C608   1.283       .  A
C608        O609   1.259       .  A
C608        C704   1.511       .  S
O609       Cr616   1.960       .  S
O610       Cr616   1.984       .  S
O610        C611   1.265       .  A
C611        O612   1.265       .  A
C611        C680   1.476       .  S
O612       Cr617   1.989       .  S
O613       Cr617   1.971       .  S
O613        C614   1.257       .  A
C614        C773   1.474       .  S
Cr615       O618   1.772       .  S
Cr616       O618   1.772       .  S
Cr617       O618   1.778       .  S
O619       Cr637   2.010       .  S
O619        C627   1.266       .  A
O620       Cr637   1.989       .  S
O620        C621   1.259       .  A
C621        O622   1.263       .  A
C621        C725   1.475       .  S
O622       Cr638   2.003       .  S
O623       Cr638   1.973       .  S
O623        C624   1.258       .  A
C624        O625   1.255       .  A
C624        C668   1.468       .  S
O625       Cr639   1.960       .  S
O626       Cr639   2.007       .  S
O626        C627   1.264       .  A
C627        C644   1.505       .  S
O628       Cr637   2.015       .  S
O628        C636   1.269       .  A
O629       Cr637   2.007       .  S
O629        C630   1.274       .  A
C630        O631   1.263       .  A
C630        C656   1.486       .  S
O631       Cr638   1.982       .  S
O632       Cr638   2.004       .  S
O632        C633   1.266       .  A
C633        O634   1.264       .  A
C633        C740   1.490       .  S
O634       Cr639   2.008       .  S
O635       Cr639   1.973       .  S
O635        C636   1.259       .  A
C636        C764   1.492       .  S
Cr637       O640   1.776       .  S
Cr638       O640   1.772       .  S
Cr639       O640   1.781       .  S
C641        C642   1.416   1_556  A
C641        C646   1.418       .  A
C642        H647   1.084       .  S
C643       C1572   1.414       .  A
C643        C650   1.444       .  S
C644       C1571   1.410   1_455  A
C644        C645   1.411       .  A
C645       C1110   1.413   1_455  A
C645        H648   1.085       .  S
C646       C1109   1.415   1_556  A
C646        C649   1.443       .  S
C649        N651   1.157       .  T
C650        N652   1.157       .  T
C653        C654   1.407       .  A
C653        C658   1.427       .  A
C654        C655   1.405       .  A
C654        H659   1.082       .  S
C655        C656   1.416       .  A
C655        C662   1.445       .  S
C656        C657   1.399       .  A
C657        C658   1.404       .  A
C657        H660   1.085       .  S
C658        C661   1.445       .  S
C661        N663   1.157       .  T
C662        N664   1.157       .  T
C665        C666   1.396       .  A
C665        C670   1.407       .  A
C666        H671   1.086       .  S
C667        C668   1.419       .  A
C667        C674   1.446       .  S
C668        C669   1.407       .  A
C669        H672   1.084       .  S
C670        C673   1.444       .  S
C673        N675   1.157       .  T
C674        N676   1.157       .  T
C677        C678   1.405       .  A
C677        C682   1.409       .  A
C678        C679   1.409       .  A
C678        H683   1.085       .  S
C679        C680   1.414       .  A
C679        C686   1.443       .  S
C680        C681   1.401       .  A
C681        C682   1.390       .  A
C681        H684   1.084       .  S
C682        C685   1.445       .  S
C685        N687   1.157       .  T
C686        N688   1.157       .  T
C689        C690   1.403       .  A
C689        C694   1.406   1_455  A
C690       C1619   1.390   1_455  A
C690        H695   1.082       .  S
C691       C1618   1.396       .  A
C691        C692   1.408       .  A
C691        C698   1.446       .  S
C692        C693   1.409       .  A
C693       C1622   1.405       .  A
C693        H696   1.085       .  S
C694       C1621   1.407       .  A
C694        C697   1.443       .  S
C697        N699   1.157       .  T
C698        N700   1.157       .  T
C701        C702   1.402       .  A
C701        C706   1.427       .  A
C702        C703   1.407       .  A
C702        H707   1.085       .  S
C703        C704   1.427       .  A
C703        C710   1.443       .  S
C704        C705   1.404       .  A
C705        C706   1.409       .  A
C705        H708   1.085       .  S
C706        C709   1.444       .  S
C709        N711   1.157       .  T
C710        N712   1.157       .  T
C713        C714   1.401   1_556  A
C713        C718   1.408       .  A
C714        H719   1.085       .  S
C715        C716   1.401       .  A
C715        C722   1.442       .  S
C716        C717   1.410       .  A
C717        H720   1.084       .  S
C718        C721   1.445       .  S
C721        N723   1.157       .  T
C722        N724   1.156       .  T
C725        C726   1.407       .  A
C725       C1658   1.411   1_455  A
C726       C1655   1.405   1_455  A
C726        H731   1.080       .  S
C727       C1654   1.400       .  A
C727        C728   1.405       .  A
C727        C734   1.443       .  S
C728        C729   1.411       .  A
C729        C730   1.412       .  A
C729        H732   1.084       .  S
C730       C1653   1.411       .  A
C730        C733   1.442       .  S
C733        N735   1.157       .  T
C734        N736   1.157       .  T
C737        C738   1.410       .  A
C737        C742   1.412       .  A
C738        C739   1.412       .  A
C738        H743   1.085       .  S
C739        C740   1.410       .  A
C739        C746   1.442       .  S
C740        C741   1.405       .  A
C741        C742   1.402       .  A
C741        H744   1.083       .  S
C742        C745   1.444       .  S
C745        N747   1.157       .  T
C746        N748   1.157       .  T
C749        C750   1.405       .  A
C749        C754   1.425       .  A
C750        C751   1.411       .  A
C750        H755   1.085       .  S
C751        C758   1.445       .  S
C752        C753   1.401       .  A
C753        H756   1.085       .  S
C754        C757   1.444       .  S
C758        N760   1.157       .  T
C761        C762   1.407       .  A
C761        C766   1.416       .  A
C762        C763   1.402       .  A
C762        H767   1.084       .  S
C763        C764   1.418       .  A
C763        C770   1.445       .  S
C764        C765   1.406       .  A
C765        C766   1.401       .  A
C765        H768   1.085       .  S
C766        C769   1.444       .  S
C769        N771   1.157       .  T
C770        N772   1.158       .  T
C773        C774   1.400       .  A
C773        C778   1.412       .  A
C774        C775   1.401       .  A
C774        H779   1.085       .  S
C775        C776   1.416       .  A
C775        C782   1.444       .  S
C776        C777   1.402       .  A
C777        C778   1.400       .  A
C777        H780   1.085       .  S
C778        C781   1.445       .  S
C781        N783   1.157       .  T
C782        N784   1.157       .  T
C785        C786   1.418   1_556  A
C785        C790   1.414       .  A
C786       C1251   1.408       .  A
C786        H791   1.084       .  S
C787       C1250   1.408       .  A
C787        C788   1.407   1_655  A
C787        C794   1.443       .  S
C788       C1717   1.414       .  A
C789       C1716   1.416       .  A
C789        H792   1.084       .  S
C790        C793   1.443       .  S
C793        N795   1.157       .  T
C794        N796   1.157       .  T
C797        C798   1.414       .  A
C797        C802   1.419       .  A
C798        C799   1.413   1_565  A
C798        H803   1.084       .  S
C799        C800   1.414       .  A
C799        C806   1.443       .  S
C800        C801   1.403       .  A
C801        C802   1.402   1_545  A
C801        H804   1.085       .  S
C802        C805   1.440       .  S
C805        N807   1.156       .  T
C806        N808   1.157       .  T
C809        C810   1.401       .  A
C809        C814   1.424       .  A
C810        C811   1.408       .  A
C810        H815   1.084       .  S
C811        C812   1.421       .  A
C811        C818   1.444       .  S
C812        C813   1.395       .  A
C813        C814   1.402       .  A
C813        H816   1.085       .  S
C814        C817   1.446       .  S
C817        N819   1.157       .  T
C818        N820   1.157       .  T
C821        C822   1.398       .  A
C821        C826   1.414       .  A
C822        H827   1.085       .  S
C823        C824   1.422       .  A
C823        C830   1.446       .  S
C824        C825   1.401       .  A
C825        H828   1.085       .  S
C826        C829   1.446       .  S
C829        N831   1.157       .  T
C830        N832   1.157       .  T
C833        C834   1.411       .  A
C833        C838   1.404       .  A
C834        C835   1.407       .  A
C834        H839   1.086       .  S
C835        C836   1.405       .  A
C835        C842   1.443       .  S
C836        C837   1.408       .  A
C837        C838   1.400       .  A
C837        H840   1.083       .  S
C838        C841   1.444       .  S
C841        N843   1.157       .  T
C842        N844   1.157       .  T
C845        C846   1.404       .  A
C845       C1778   1.425       .  A
C846       C1775   1.401   1_455  A
C846        H851   1.084       .  S
C847       C1774   1.400       .  A
C847        C848   1.417       .  A
C847        C854   1.445       .  S
C848        C849   1.397       .  A
C849        C850   1.406       .  A
C849        H852   1.085       .  S
C850       C1773   1.422       .  A
C850        C853   1.439       .  S
C853        N855   1.156       .  T
C854        N856   1.157       .  T
C857        C858   1.411       .  A
C857        C862   1.418       .  A
C858        C859   1.403   1_565  A
C858        H863   1.084       .  S
C859        C860   1.410       .  A
C859        C866   1.444       .  S
C860        C861   1.405       .  A
C861        C862   1.402   1_545  A
C861        H864   1.085       .  S
C862        C865   1.445       .  S
C865        N867   1.158       .  T
C866        N868   1.157       .  T
C869        C870   1.417       .  A
C869        C874   1.410       .  A
C870        C871   1.408       .  A
C870        H875   1.085       .  S
C871        C872   1.409       .  A
C871        C878   1.444       .  S
C872        C873   1.413       .  A
C873        C874   1.407       .  A
C873        H876   1.084       .  S
C874        C877   1.443       .  S
C877        N879   1.157       .  T
C878        N880   1.158       .  T
C881        C882   1.394   1_556  A
C881        C886   1.408       .  A
C882        H887   1.086       .  S
C883        C884   1.418       .  A
C883        C890   1.446       .  S
C884        C885   1.411       .  A
C885        H888   1.085       .  S
C886        C889   1.444       .  S
C889        N891   1.157       .  T
C890        N892   1.157       .  T
C893        C894   1.395       .  A
C893        C898   1.422       .  A
C894        C895   1.393       .  A
C894        H899   1.086       .  S
C895       C1824   1.421       .  A
C895        C902   1.439       .  S
C896       C1823   1.412       .  A
C896        C897   1.398   1_455  A
C897       C1826   1.404       .  A
C897        H900   1.085       .  S
C898       C1825   1.407       .  A
C898        C901   1.444       .  S
C901        N903   1.157       .  T
C902        N904   1.155       .  T
C905        C906   1.395       .  A
C905        C910   1.423       .  A
C906        C907   1.394       .  A
C906        H911   1.085       .  S
C907        C908   1.418       .  A
C907        C914   1.442       .  S
C908        C909   1.399       .  A
C909        C910   1.405       .  A
C909        H912   1.085       .  S
C910        C913   1.443       .  S
C913        N915   1.157       .  T
C914        N916   1.156       .  T
C917        C918   1.416       .  A
C917        C922   1.416       .  A
C918        H923   1.084       .  S
C919        C920   1.410       .  A
C919        C926   1.442       .  S
C920        C921   1.413       .  A
C921        H924   1.084       .  S
C922        C925   1.444       .  S
C925        N927   1.158       .  T
C926        N928   1.157       .  T
O929       Cr947   2.023       .  S
O929        C937   1.268       .  A
O930       Cr947   1.967       .  S
O930        C931   1.253       .  A
C931        O932   1.268       .  A
C931       C1372   1.486       .  S
O932       Cr948   2.020       .  S
O933       Cr948   1.979       .  S
O933        C934   1.260       .  A
C934        O935   1.258       .  A
C934       C1348   1.477       .  S
O935       Cr949   1.975       .  S
O936       Cr949   1.989       .  S
O936        C937   1.260       .  A
C937       C1381   1.502       .  S
O938       Cr947   2.009       .  S
O938        C946   1.266       .  A
O939       Cr947   2.024       .  S
O939        C940   1.279       .  A
C940        O941   1.264       .  A
C940       C1333   1.506       .  S
O941       Cr948   1.979       .  S
O942       Cr948   1.990       .  S
O942        C943   1.267       .  A
C943        O944   1.259       .  A
C943       C1357   1.488       .  S
O944       Cr949   1.989       .  S
O945       Cr949   1.981       .  S
O945        C946   1.260       .  A
C946       C1321   1.496       .  S
Cr947       O950   1.778       .  S
Cr948       O950   1.768       .  S
Cr949       O950   1.786       .  S
O951       Cr969   2.015       .  S
O951        C959   1.268       .  A
O952       Cr969   1.979       .  S
O952        C953   1.257       .  A
C953        O954   1.265       .  A
C953       C1297   1.472       .  S
O954       Cr970   2.006       .  S
O955       Cr970   1.966       .  S
O955        C956   1.253       .  A
C956        O957   1.257       .  A
C956       C1288   1.472       .  S
O957       Cr971   1.963       .  S
O958       Cr971   1.996       .  S
O958        C959   1.263       .  A
C959       C1384   1.499       .  S
O960       Cr969   2.025       .  S
O960        C968   1.268       .  A
O961       Cr969   2.027       .  S
O961        C962   1.279       .  A
C962        O963   1.258       .  A
C962       C1273   1.490       .  S
O963       Cr970   1.961       .  S
O964       Cr970   1.993       .  S
O964        C965   1.268       .  A
C965        O966   1.260       .  A
C965       C1309   1.492       .  S
O966       Cr971   1.986       .  S
O967       Cr971   1.980       .  S
O967        C968   1.258       .  A
C968       C1261   1.506       .  S
Cr969       O972   1.779       .  S
Cr970       O972   1.777       .  S
Cr971       O972   1.781       .  S
O973       Cr991   1.949       .  S
O973        C981   1.253       .  A
O974       Cr991   1.978       .  S
O974        C975   1.262       .  A
C975        O976   1.261       .  A
C975       C1345   1.444       .  S
O976       Cr992   1.970       .  S
O977       Cr992   2.034       .  S
O977        C978   1.263       .  A
C978        O979   1.249       .  A
C978       C1312   1.481       .  S
O979       Cr993   1.958       .  S
O980       Cr993   2.052       .  S
O980        C981   1.278       .  A
C981       C1249   1.509       .  S
O982       Cr991   2.001       .  S
O982        C990   1.264       .  A
O983       Cr991   1.981       .  S
O983        C984   1.260       .  A
C984        O985   1.268       .  A
C984       C1300   1.481       .  S
O985       Cr992   2.021       .  S
O986       Cr992   1.955       .  S
O986        C987   1.261       .  A
C987        O988   1.282       .  A
C987       C1336   1.492       .  S
O988       Cr993   2.057       .  S
O989       Cr993   1.980       .  S
O989        C990   1.258       .  A
C990       C1240   1.487       .  S
Cr991       O994   1.775       .  S
Cr992       O994   1.785       .  S
Cr993       O994   1.771       .  S
O995      Cr1013   1.988       .  S
O995       C1003   1.258       .  A
O996      Cr1013   1.967       .  S
O996        C997   1.257       .  A
C997        O998   1.256       .  A
C997       C1285   1.462       .  S
O998      Cr1014   1.966       .  S
O999      Cr1014   2.015       .  S
O999       C1000   1.267       .  A
C1000      O1001   1.257       .  A
C1000      C1360   1.492       .  S
O1001     Cr1015   1.981       .  S
O1002     Cr1015   2.025       .  S
O1002      C1003   1.269       .  A
C1003      C1252   1.501       .  S
O1004     Cr1013   1.981       .  S
O1004      C1012   1.261       .  A
O1005     Cr1013   1.989       .  S
O1005      C1006   1.259       .  A
C1006      O1007   1.268       .  A
C1006      C1369   1.492       .  S
O1007     Cr1014   2.002       .  S
O1008     Cr1014   1.965       .  S
O1008      C1009   1.258       .  A
C1009      O1010   1.278       .  A
C1009      C1276   1.487       .  S
O1010     Cr1015   2.021       .  S
O1011     Cr1015   2.012       .  S
O1011      C1012   1.267       .  A
C1012      C1225   1.496       .  S
Cr1013     O1016   1.780       .  S
Cr1014     O1016   1.773       .  S
Cr1015     O1016   1.772       .  S
O1017     Cr1035   1.958       .  S
O1017      C1025   1.256       .  A
O1018     Cr1035   1.963       .  S
O1018      C1019   1.254       .  A
C1019      O1020   1.267       .  A
C1019      C1180   1.470       .  S
O1020     Cr1036   2.000       .  S
O1021     Cr1036   2.036       .  S
O1021      C1022   1.265       .  A
C1022      O1023   1.252       .  A
C1022      C1201   1.486       .  S
O1023     Cr1037   1.966       .  S
O1024     Cr1037   2.046       .  S
O1024      C1025   1.278       .  A
C1025      C1213   1.507       .  S
O1026     Cr1035   1.983       .  S
O1026      C1034   1.259       .  A
O1027     Cr1035   1.977       .  S
O1027      C1028   1.264       .  A
C1028      O1029   1.271       .  A
C1028      C1192   1.473       .  S
O1029     Cr1036   2.017       .  S
O1030     Cr1036   1.963       .  S
O1030      C1031   1.260       .  A
C1031      O1032   1.280       .  A
C1031      C1165   1.504       .  S
O1032     Cr1037   2.048       .  S
O1033     Cr1037   1.993       .  S
O1033      C1034   1.261       .  A
C1034      C1324   1.482       .  S
Cr1035     O1038   1.775       .  S
Cr1036     O1038   1.774       .  S
Cr1037     O1038   1.772       .  S
O1039     Cr1057   1.960       .  S
O1039      C1047   1.255       .  A
O1040     Cr1057   1.977       .  S
O1040      C1041   1.262       .  A
C1041      O1042   1.261       .  A
C1041      C1129   1.448       .  S
O1042     Cr1058   1.974       .  S
O1043     Cr1058   2.003       .  S
O1043      C1044   1.256       .  A
C1044      O1045   1.255       .  A
C1044      C1141   1.476       .  S
O1045     Cr1059   1.975       .  S
O1046     Cr1059   2.043       .  S
O1046      C1047   1.276       .  A
C1047      C1216   1.509       .  S
O1048     Cr1057   1.997       .  S
O1048      C1056   1.262       .  A
O1049     Cr1057   1.998       .  S
O1049      C1050   1.264       .  A
C1050      O1051   1.262       .  A
C1050      C1153   1.479       .  S
O1051     Cr1058   1.992       .  S
O1052     Cr1058   1.958       .  S
O1052      C1053   1.261       .  A
C1053      O1054   1.282       .  A
C1053      C1117   1.502       .  S
O1054     Cr1059   2.052       .  S
O1055     Cr1059   1.994       .  S
O1055      C1056   1.262       .  A
C1056      C1264   1.493       .  S
Cr1057     O1060   1.779       .  S
Cr1058     O1060   1.784       .  S
Cr1059     O1060   1.778       .  S
O1061     Cr1079   2.041       .  S
O1061      C1069   1.275       .  A
O1062     Cr1079   1.986       .  S
O1062      C1063   1.256       .  A
C1063      O1064   1.253       .  A
C1063      C1156   1.479       .  S
O1064     Cr1080   1.996       .  S
O1065     Cr1080   1.986       .  S
O1065      C1066   1.265       .  A
C1066      O1067   1.256       .  A
C1066      C1177   1.444       .  S
O1067     Cr1081   1.960       .  S
O1068     Cr1081   1.973       .  S
O1068      C1069   1.260       .  A
C1069      C1105   1.515       .  S
O1070     Cr1079   2.005       .  S
O1070      C1078   1.264       .  A
O1071     Cr1079   2.060       .  S
O1071      C1072   1.283       .  A
C1072      O1073   1.259       .  A
C1072      C1168   1.506       .  S
O1073     Cr1080   1.955       .  S
O1074     Cr1080   1.972       .  S
O1074      C1075   1.259       .  A
C1075      O1076   1.266       .  A
C1075      C1144   1.482       .  S
O1076     Cr1081   2.003       .  S
O1077     Cr1081   1.973       .  S
O1077      C1078   1.258       .  A
C1078      C1237   1.487       .  S
Cr1079     O1082   1.779       .  S
Cr1080     O1082   1.776       .  S
Cr1081     O1082   1.781       .  S
O1083     Cr1101   2.018       .  S
O1083      C1091   1.268       .  A
O1084     Cr1101   1.981       .  S
O1084      C1085   1.256       .  A
C1085      O1086   1.267       .  A
C1085      C1189   1.482       .  S
O1086     Cr1102   2.018       .  S
O1087     Cr1102   1.993       .  S
O1087      C1088   1.261       .  A
C1088      O1089   1.254       .  A
C1088      C1132   1.474       .  S
O1089     Cr1103   1.955       .  S
O1090     Cr1103   2.006       .  S
O1090      C1091   1.263       .  A
C1091      C1108   1.509       .  S
O1092     Cr1101   2.014       .  S
O1092      C1100   1.269       .  A
O1093     Cr1101   2.011       .  S
O1093      C1094   1.275       .  A
C1094      O1095   1.264       .  A
C1094      C1120   1.487       .  S
O1095     Cr1102   1.987       .  S
O1096     Cr1102   2.011       .  S
O1096      C1097   1.268       .  A
C1097      O1098   1.263       .  A
C1097      C1204   1.491       .  S
O1098     Cr1103   1.999       .  S
O1099     Cr1103   1.976       .  S
O1099      C1100   1.259       .  A
C1100      C1228   1.495       .  S
Cr1101     O1104   1.777       .  S
Cr1102     O1104   1.781       .  S
Cr1103     O1104   1.780       .  S
C1105      C1106   1.416       .  A
C1105      C1110   1.418       .  A
C1106      C1571   1.408       .  A
C1106      H1111   1.084       .  S
C1107      C1570   1.408   1_554  A
C1107      C1114   1.445       .  S
C1108      C1109   1.413       .  A
C1109      H1112   1.084       .  S
C1110      C1113   1.443   1_655  S
C1113      N1115   1.157       .  T
C1114      N1116   1.158       .  T
C1117      C1118   1.406       .  A
C1117      C1122   1.424       .  A
C1118      C1119   1.404       .  A
C1118      H1123   1.084       .  S
C1119      C1120   1.414       .  A
C1119      C1126   1.443       .  S
C1120      C1121   1.402       .  A
C1121      C1122   1.408       .  A
C1121      H1124   1.085       .  S
C1122      C1125   1.445       .  S
C1125      N1127   1.158       .  T
C1126      N1128   1.157       .  T
C1129      C1130   1.395       .  A
C1129      C1134   1.405       .  A
C1130      C1595   1.390       .  A
C1130      H1135   1.083       .  S
C1131      C1594   1.391   1_554  A
C1131      C1132   1.418       .  A
C1131      C1138   1.446       .  S
C1132      C1133   1.408   1_554  A
C1133      C1598   1.393       .  A
C1133      H1136   1.084       .  S
C1134      C1597   1.394       .  A
C1134      C1137   1.444       .  S
C1137      N1139   1.157       .  T
C1138      N1140   1.158       .  T
C1141      C1142   1.406       .  A
C1141      C1146   1.408       .  A
C1142      C1143   1.410       .  A
C1142      H1147   1.085       .  S
C1143      C1144   1.413       .  A
C1143      C1150   1.442       .  S
C1144      C1145   1.406       .  A
C1145      C1146   1.392       .  A
C1145      H1148   1.084       .  S
C1146      C1149   1.446       .  S
C1149      N1151   1.157       .  T
C1150      N1152   1.157       .  T
C1153      C1154   1.405       .  A
C1153      C1158   1.406       .  A
C1154      H1159   1.084       .  S
C1155      C1156   1.407   1_455  A
C1155      C1162   1.445       .  S
C1156      C1157   1.410       .  A
C1157      H1160   1.085       .  S
C1158      C1161   1.442       .  S
C1161      N1163   1.157       .  T
C1162      N1164   1.157       .  T
C1165      C1166   1.401       .  A
C1165      C1170   1.425       .  A
C1166      C1167   1.403       .  A
C1166      H1171   1.085       .  S
C1167      C1168   1.426       .  A
C1167      C1174   1.444       .  S
C1168      C1169   1.404       .  A
C1169      C1170   1.409       .  A
C1169      H1172   1.085       .  S
C1170      C1173   1.445       .  S
C1173      N1175   1.158       .  T
C1174      N1176   1.157       .  T
C1177      C1178   1.402       .  A
C1177      C1182   1.407       .  A
C1178      C1643   1.392       .  A
C1178      H1183   1.085       .  S
C1179      C1642   1.393   1_554  A
C1179      C1180   1.401       .  A
C1179      C1186   1.444       .  S
C1180      C1181   1.413       .  A
C1181      C1646   1.394   1_554  A
C1181      H1184   1.087       .  S
C1182      C1645   1.393       .  A
C1182      C1185   1.445       .  S
C1185      N1187   1.157       .  T
C1186      N1188   1.157       .  T
C1189      C1190   1.411       .  A
C1190      H1195   1.086       .  S
C1191      C1192   1.404       .  A
C1191      C1198   1.444       .  S
C1192      C1193   1.409       .  A
C1193      C1194   1.407       .  A
C1193      H1196   1.082       .  S
C1194      C1197   1.443   1_655  S
C1197      N1199   1.157       .  T
C1198      N1200   1.157       .  T
C1201      C1202   1.411       .  A
C1201      C1206   1.408       .  A
C1202      C1203   1.414       .  A
C1202      H1207   1.084       .  S
C1203      C1204   1.411       .  A
C1203      C1210   1.442       .  S
C1204      C1205   1.406       .  A
C1205      C1206   1.399       .  A
C1205      H1208   1.081       .  S
C1206      C1209   1.444       .  S
C1209      N1211   1.157       .  T
C1210      N1212   1.157       .  T
C1213      C1214   1.405       .  A
C1213      C1218   1.426   1_554  A
C1214      C1215   1.409       .  A
C1214      H1219   1.085       .  S
C1215      C1680   1.425   1_554  A
C1215      C1222   1.445       .  S
C1216      C1679   1.426       .  A
C1216      C1217   1.405       .  A
C1217      C1682   1.409       .  A
C1217      H1220   1.084       .  S
C1218      C1681   1.406       .  A
C1218      C1221   1.445       .  S
C1221      N1687   1.157       .  T
C1222      N1224   1.158       .  T
N1223      C1685   1.157       .  T
C1225      C1226   1.408       .  A
C1225      C1230   1.417       .  A
C1226      C1227   1.405       .  A
C1226      H1231   1.085       .  S
C1227      C1228   1.418       .  A
C1227      C1234   1.444       .  S
C1228      C1229   1.406       .  A
C1229      C1230   1.401       .  A
C1229      H1232   1.085       .  S
C1230      C1233   1.444       .  S
C1233      N1235   1.157       .  T
C1234      N1236   1.158       .  T
C1237      C1238   1.404       .  A
C1237      C1242   1.415       .  A
C1238      C1239   1.407       .  A
C1238      H1243   1.085       .  S
C1239      C1240   1.417       .  A
C1239      C1246   1.444       .  S
C1240      C1241   1.402       .  A
C1241      C1242   1.401       .  A
C1241      H1244   1.085       .  S
C1242      C1245   1.445       .  S
C1245      N1247   1.157       .  T
C1246      N1248   1.157       .  T
C1249      C1250   1.419       .  A
C1249      C1254   1.413       .  A
C1250      H1255   1.084       .  S
C1251      C1252   1.408       .  A
C1251      C1258   1.443       .  S
C1253      C1718   1.410   1_454  A
C1253      H1256   1.084       .  S
C1254      C1717   1.410   1_655  A
C1254      C1257   1.443   1_655  S
C1257      N1259   1.157       .  T
C1258      N1260   1.157       .  T
C1261      C1262   1.410       .  A
C1261      C1266   1.420       .  A
C1262      C1263   1.408   1_565  A
C1262      H1267   1.084       .  S
C1263      C1264   1.414       .  A
C1263      C1270   1.444       .  S
C1264      C1265   1.404       .  A
C1265      C1266   1.406   1_545  A
C1265      H1268   1.085       .  S
C1266      C1269   1.442       .  S
C1269      N1271   1.157       .  T
C1270      N1272   1.157       .  T
C1273      C1274   1.399       .  A
C1273      C1278   1.426       .  A
C1274      C1275   1.406       .  A
C1274      H1279   1.085       .  S
C1275      C1276   1.424       .  A
C1275      C1282   1.445       .  S
C1276      C1277   1.394       .  A
C1277      C1278   1.400       .  A
C1277      H1280   1.085       .  S
C1278      C1281   1.446       .  S
C1281      N1283   1.157       .  T
C1282      N1284   1.157       .  T
C1285      C1286   1.399       .  A
C1285      C1290   1.411       .  A
C1286      C1751   1.390   1_554  A
C1286      H1291   1.085       .  S
C1287      C1750   1.392       .  A
C1287      C1288   1.421       .  A
C1287      C1294   1.446       .  S
C1288      C1289   1.399       .  A
C1289      C1754   1.389       .  A
C1289      H1292   1.084       .  S
C1290      C1753   1.391   1_554  A
C1290      C1293   1.446       .  S
C1293      N1295   1.157       .  T
C1294      N1296   1.157       .  T
C1297      C1298   1.410       .  A
C1297      C1302   1.405       .  A
C1298      C1299   1.407       .  A
C1298      H1303   1.085       .  S
C1299      C1300   1.406       .  A
C1299      C1306   1.442       .  S
C1300      C1301   1.408       .  A
C1301      C1302   1.399       .  A
C1301      H1304   1.080       .  S
C1302      C1305   1.445       .  S
C1305      N1307   1.157       .  T
C1306      N1308   1.157       .  T
C1309      C1310   1.402       .  A
C1310      H1315   1.083       .  S
C1311      C1312   1.414       .  A
C1311      C1318   1.445       .  S
C1312      C1313   1.399       .  A
C1313      C1314   1.407   1_655  A
C1313      H1316   1.084       .  S
C1314      C1317   1.444       .  S
C1317      N1319   1.157       .  T
C1318      N1320   1.157       .  T
C1321      C1322   1.411       .  A
C1321      C1326   1.417       .  A
C1322      C1323   1.403   1_565  A
C1322      H1327   1.084       .  S
C1323      C1324   1.410       .  A
C1323      C1330   1.444       .  S
C1324      C1325   1.405       .  A
C1325      C1326   1.402   1_545  A
C1325      H1328   1.085       .  S
C1326      C1329   1.444       .  S
C1329      N1331   1.157       .  T
C1330      N1332   1.157       .  T
C1333      C1334   1.420       .  A
C1333      C1338   1.412       .  A
C1334      C1335   1.404       .  A
C1334      H1339   1.084       .  S
C1335      C1336   1.403       .  A
C1335      C1342   1.444       .  S
C1336      C1337   1.413       .  A
C1337      C1338   1.409       .  A
C1337      H1340   1.085       .  S
C1338      C1341   1.443       .  S
C1341      N1343   1.157       .  T
C1342      N1344   1.157       .  T
C1345      C1346   1.392       .  A
C1345      C1350   1.406       .  A
C1346      C1811   1.388       .  A
C1346      H1351   1.087       .  S
C1347      C1810   1.389   1_554  A
C1347      C1348   1.412       .  A
C1347      C1354   1.446       .  S
C1348      C1349   1.409       .  A
C1349      C1814   1.403   1_554  A
C1349      H1352   1.085       .  S
C1350      C1813   1.395       .  A
C1350      C1353   1.445       .  S
C1353      N1355   1.157       .  T
C1354      N1356   1.157       .  T
C1357      C1358   1.395       .  A
C1357      C1362   1.423       .  A
C1358      C1359   1.392       .  A
C1358      H1363   1.085       .  S
C1359      C1366   1.441   1_655  S
C1360      C1361   1.402       .  A
C1361      H1364   1.085       .  S
C1362      C1365   1.445       .  S
C1365      N1367   1.158       .  T
C1366      N1368   1.156       .  T
C1369      C1370   1.398       .  A
C1369      C1374   1.425       .  A
C1370      C1371   1.398       .  A
C1370      H1375   1.085       .  S
C1371      C1372   1.420       .  A
C1371      C1378   1.445       .  S
C1372      C1373   1.399       .  A
C1373      C1374   1.407       .  A
C1373      H1376   1.085       .  S
C1374      C1377   1.443       .  S
C1377      N1379   1.157       .  T
C1378      N1380   1.157       .  T
C1381      C1382   1.413       .  A
C1381      C1386   1.412       .  A
C1382      C1847   1.406   1_554  A
C1382      H1387   1.083       .  S
C1383      C1846   1.407       .  A
C1383      C1384   1.408       .  A
C1383      C1390   1.442       .  S
C1384      C1385   1.412       .  A
C1385      C1850   1.410       .  A
C1385      H1388   1.082       .  S
C1386      C1849   1.411       .  A
C1386      C1389   1.444       .  S
C1389      N1391   1.157       .  T
C1390      N1392   1.157       .  T
O1393     Cr1411   2.025       .  S
O1393      C1401   1.269       .  A
O1394     Cr1411   1.973       .  S
O1394      C1395   1.253       .  A
C1395      O1396   1.264       .  A
C1395      C1836   1.476       .  S
O1396     Cr1412   2.012       .  S
O1397     Cr1412   1.974       .  S
O1397      C1398   1.258       .  A
C1398      O1399   1.256       .  A
C1398      C1812   1.471       .  S
O1399     Cr1413   1.965       .  S
O1400     Cr1413   1.987       .  S
O1400      C1401   1.259       .  A
C1401      C1845   1.504       .  S
O1402     Cr1411   2.011       .  S
O1402      C1410   1.267       .  A
O1403     Cr1411   2.015       .  S
O1403      C1404   1.278       .  A
C1404      O1405   1.266       .  A
C1404      C1797   1.496       .  S
O1405     Cr1412   1.988       .  S
O1406     Cr1412   1.996       .  S
O1406      C1407   1.269       .  A
C1407      O1408   1.258       .  A
C1407      C1821   1.482       .  S
O1408     Cr1413   1.983       .  S
O1409     Cr1413   1.978       .  S
O1409      C1410   1.259       .  A
C1410      C1785   1.496       .  S
Cr1411     O1414   1.773       .  S
Cr1412     O1414   1.770       .  S
Cr1413     O1414   1.781       .  S
O1415     Cr1433   2.016       .  S
O1415      C1423   1.270       .  A
O1416     Cr1433   1.970       .  S
O1416      C1417   1.255       .  A
C1417      O1418   1.266       .  A
C1417      C1761   1.488       .  S
O1418     Cr1434   2.018       .  S
O1419     Cr1434   1.959       .  S
O1419      C1420   1.253       .  A
C1420      O1421   1.257       .  A
C1420      C1752   1.470       .  S
O1421     Cr1435   1.968       .  S
O1422     Cr1435   1.994       .  S
O1422      C1423   1.263       .  A
C1423      C1848   1.499       .  S
O1424     Cr1433   2.024       .  S
O1424      C1432   1.266       .  A
O1425     Cr1433   2.034       .  S
O1425      C1426   1.283       .  A
C1426      O1427   1.257       .  A
C1426      C1737   1.490       .  S
O1427     Cr1434   1.952       .  S
O1428     Cr1434   1.994       .  S
O1428      C1429   1.266       .  A
C1429      O1430   1.262       .  A
C1429      C1773   1.497       .  S
O1430     Cr1435   1.995       .  S
O1431     Cr1435   1.990       .  S
O1431      C1432   1.262       .  A
C1432      C1725   1.510       .  S
Cr1433     O1436   1.783       .  S
Cr1434     O1436   1.784       .  S
Cr1435     O1436   1.790       .  S
O1437     Cr1455   1.949       .  S
O1437      C1445   1.253       .  A
O1438     Cr1455   1.984       .  S
O1438      C1439   1.264       .  A
C1439      O1440   1.267       .  A
C1439      C1809   1.476       .  S
O1440     Cr1456   1.991       .  S
O1441     Cr1456   2.047       .  S
O1441      C1442   1.266       .  A
C1442      O1443   1.248       .  A
C1442      C1776   1.490       .  S
O1443     Cr1457   1.955       .  S
O1444     Cr1457   2.047       .  S
O1444      C1445   1.276       .  A
C1445      C1713   1.507       .  S
O1446     Cr1455   2.011       .  S
O1446      C1454   1.266       .  A
O1447     Cr1455   1.976       .  S
O1447      C1448   1.262       .  A
C1448      O1449   1.270       .  A
C1448      C1764   1.479       .  S
O1449     Cr1456   2.023       .  S
O1450     Cr1456   1.958       .  S
O1450      C1451   1.261       .  A
C1451      O1452   1.281       .  A
C1451      C1800   1.501       .  S
O1452     Cr1457   2.059       .  S
O1453     Cr1457   1.978       .  S
O1453      C1454   1.258       .  A
C1454      C1704   1.489       .  S
Cr1455     O1458   1.774       .  S
Cr1456     O1458   1.780       .  S
Cr1457     O1458   1.773       .  S
O1459     Cr1477   1.982       .  S
O1459      C1467   1.255       .  A
O1460     Cr1477   1.976       .  S
O1460      C1461   1.260       .  A
C1461      O1462   1.254       .  A
C1461      C1749   1.471       .  S
O1462     Cr1478   1.957       .  S
O1463     Cr1478   2.012       .  S
O1463      C1464   1.267       .  A
C1464      O1465   1.256       .  A
C1464      C1824   1.489       .  S
O1465     Cr1479   1.975       .  S
O1466     Cr1479   2.033       .  S
O1466      C1467   1.269       .  A
C1467      C1716   1.506       .  S
O1468     Cr1477   1.977       .  S
O1468      C1476   1.261       .  A
O1469     Cr1477   1.981       .  S
O1469      C1470   1.257       .  A
C1470      O1471   1.268       .  A
C1470      C1833   1.483       .  S
O1471     Cr1478   2.001       .  S
O1472     Cr1478   1.958       .  S
O1472      C1473   1.257       .  A
C1473      O1474   1.279       .  A
C1473      C1740   1.487       .  S
O1474     Cr1479   2.028       .  S
O1475     Cr1479   2.019       .  S
O1475      C1476   1.269       .  A
C1476      C1689   1.493       .  S
Cr1477     O1480   1.781       .  S
Cr1478     O1480   1.771       .  S
Cr1479     O1480   1.774       .  S
O1481     Cr1499   1.966       .  S
O1481      C1489   1.256       .  A
O1482     Cr1499   1.961       .  S
O1482      C1483   1.256       .  A
C1483      O1484   1.264       .  A
C1483      C1644   1.445       .  S
O1484     Cr1500   1.985       .  S
O1485     Cr1500   2.024       .  S
O1485      C1486   1.262       .  A
C1486      O1487   1.254       .  A
C1486      C1665   1.483       .  S
O1487     Cr1501   1.980       .  S
O1488     Cr1501   2.038       .  S
O1488      C1489   1.274       .  A
C1489      C1677   1.505       .  S
O1490     Cr1499   1.981       .  S
O1490      C1498   1.259       .  A
O1491     Cr1499   1.992       .  S
O1491      C1492   1.264       .  A
C1492      O1493   1.266       .  A
C1492      C1656   1.478       .  S
O1493     Cr1500   2.008       .  S
O1494     Cr1500   1.970       .  S
O1494      C1495   1.263       .  A
C1495      O1496   1.281       .  A
C1495      C1629   1.501       .  S
O1496     Cr1501   2.048       .  S
O1497     Cr1501   1.991       .  S
O1497      C1498   1.262       .  A
C1498      C1788   1.483       .  S
Cr1499     O1502   1.779       .  S
Cr1500     O1502   1.780       .  S
Cr1501     O1502   1.773       .  S
O1503     Cr1521   1.959       .  S
O1503      C1511   1.256       .  A
O1504     Cr1521   1.966       .  S
O1504      C1505   1.258       .  A
C1505      O1506   1.261       .  A
C1505      C1593   1.447       .  S
O1506     Cr1522   1.981       .  S
O1507     Cr1522   2.002       .  S
O1507      C1508   1.257       .  A
C1508      O1509   1.257       .  A
C1508      C1605   1.478       .  S
O1509     Cr1523   1.980       .  S
O1510     Cr1523   2.044       .  S
O1510      C1511   1.278       .  A
C1511      C1680   1.505       .  S
O1512     Cr1521   1.986       .  S
O1512      C1520   1.260       .  A
O1513     Cr1521   1.990       .  S
O1513      C1514   1.263       .  A
C1514      O1515   1.263       .  A
C1514      C1617   1.471       .  S
O1515     Cr1522   1.996       .  S
O1516     Cr1522   1.959       .  S
O1516      C1517   1.260       .  A
C1517      O1518   1.281       .  A
C1517      C1581   1.505       .  S
O1518     Cr1523   2.049       .  S
O1519     Cr1523   2.010       .  S
O1519      C1520   1.265       .  A
C1520      C1728   1.504       .  S
Cr1521     O1524   1.777       .  S
Cr1522     O1524   1.785       .  S
Cr1523     O1524   1.778       .  S
O1525     Cr1543   2.048       .  S
O1525      C1533   1.277       .  A
O1526     Cr1543   1.970       .  S
O1526      C1527   1.253       .  A
C1527      O1528   1.255       .  A
C1527      C1620   1.475       .  S
O1528     Cr1544   1.998       .  S
O1529     Cr1544   1.998       .  S
O1529      C1530   1.267       .  A
C1530      O1531   1.254       .  A
C1530      C1641   1.468       .  S
O1531     Cr1545   1.960       .  S
O1532     Cr1545   1.972       .  S
O1532      C1533   1.260       .  A
C1533      C1569   1.516       .  S
O1534     Cr1543   2.004       .  S
O1534      C1542   1.263       .  A
O1535     Cr1543   2.057       .  S
O1535      C1536   1.282       .  A
C1536      O1537   1.261       .  A
C1536      C1632   1.501       .  S
O1537     Cr1544   1.957       .  S
O1538     Cr1544   1.980       .  S
O1538      C1539   1.263       .  A
C1539      O1540   1.267       .  A
C1539      C1608   1.479       .  S
O1540     Cr1545   1.994       .  S
O1541     Cr1545   1.975       .  S
O1541      C1542   1.258       .  A
C1542      C1701   1.485       .  S
Cr1543     O1546   1.778       .  S
Cr1544     O1546   1.776       .  S
Cr1545     O1546   1.777       .  S
O1547     Cr1565   2.014       .  S
O1547      C1555   1.267       .  A
O1548     Cr1565   1.975       .  S
O1548      C1549   1.257       .  A
C1549      O1550   1.269       .  A
C1549      C1653   1.494       .  S
O1550     Cr1566   2.022       .  S
O1551     Cr1566   1.985       .  S
O1551      C1552   1.260       .  A
C1552      O1553   1.255       .  A
C1552      C1596   1.475       .  S
O1553     Cr1567   1.958       .  S
O1554     Cr1567   2.005       .  S
O1554      C1555   1.264       .  A
C1555      C1572   1.511       .  S
O1556     Cr1565   2.013       .  S
O1556      C1564   1.267       .  A
O1557     Cr1565   2.013       .  S
O1557      C1558   1.276       .  A
C1558      O1559   1.263       .  A
C1558      C1584   1.488       .  S
O1559     Cr1566   1.978       .  S
O1560     Cr1566   2.004       .  S
O1560      C1561   1.267       .  A
C1561      O1562   1.263       .  A
C1561      C1668   1.490       .  S
O1562     Cr1567   2.002       .  S
O1563     Cr1567   1.978       .  S
O1563      C1564   1.260       .  A
C1564      C1692   1.492       .  S
Cr1565     O1568   1.776       .  S
Cr1566     O1568   1.780       .  S
Cr1567     O1568   1.784       .  S
C1569      C1570   1.414       .  A
C1569      C1574   1.415       .  A
C1570      H1575   1.085       .  S
C1571      C1578   1.443       .  S
C1572      C1573   1.414       .  A
C1573      H1576   1.084       .  S
C1574      C1577   1.443       .  S
C1577      N1579   1.157   1_655  T
C1578      N1580   1.157       .  T
C1581      C1582   1.405       .  A
C1581      C1586   1.426       .  A
C1582      C1583   1.402       .  A
C1582      H1587   1.083       .  S
C1583      C1584   1.416       .  A
C1583      C1590   1.445       .  S
C1584      C1585   1.401       .  A
C1585      C1586   1.408       .  A
C1585      H1588   1.086       .  S
C1586      C1589   1.444       .  S
C1589      N1591   1.158       .  T
C1590      N1592   1.157       .  T
C1593      C1594   1.398       .  A
C1593      C1598   1.404       .  A
C1594      H1599   1.085       .  S
C1595      C1596   1.421       .  A
C1595      C1602   1.446       .  S
C1596      C1597   1.408       .  A
C1597      H1600   1.084       .  S
C1598      C1601   1.444       .  S
C1601      N1603   1.157       .  T
C1602      N1604   1.157       .  T
C1605      C1606   1.405       .  A
C1605      C1610   1.410       .  A
C1606      C1607   1.409       .  A
C1606      H1611   1.084       .  S
C1607      C1608   1.415       .  A
C1607      C1614   1.443       .  S
C1608      C1609   1.404       .  A
C1609      C1610   1.394       .  A
C1609      H1612   1.085       .  S
C1610      C1613   1.445       .  S
C1613      N1615   1.157       .  T
C1614      N1616   1.157       .  T
C1617      C1618   1.405       .  A
C1617      C1622   1.405       .  A
C1618      H1623   1.085       .  S
C1619      C1620   1.407       .  A
C1619      C1626   1.446   1_655  S
C1620      C1621   1.412       .  A
C1621      H1624   1.084       .  S
C1622      C1625   1.442       .  S
C1625      N1627   1.157       .  T
C1626      N1628   1.157       .  T
C1629      C1630   1.404       .  A
C1629      C1634   1.420       .  A
C1630      C1631   1.403       .  A
C1630      H1635   1.084       .  S
C1631      C1632   1.420       .  A
C1631      C1638   1.445       .  S
C1632      C1633   1.407       .  A
C1633      C1634   1.410       .  A
C1633      H1636   1.085       .  S
C1634      C1637   1.444       .  S
C1637      N1639   1.157       .  T
C1638      N1640   1.157       .  T
C1641      C1642   1.412       .  A
C1641      C1646   1.401       .  A
C1642      H1647   1.088       .  S
C1643      C1644   1.404       .  A
C1643      C1650   1.444       .  S
C1644      C1645   1.401       .  A
C1645      H1648   1.085       .  S
C1646      C1649   1.445       .  S
C1649      N1651   1.157       .  T
C1650      N1652   1.157       .  T
C1653      C1654   1.412       .  A
C1654      H1659   1.085       .  S
C1655      C1656   1.410       .  A
C1655      C1662   1.441       .  S
C1656      C1657   1.406       .  A
C1657      C1658   1.400       .  A
C1657      H1660   1.078       .  S
C1658      C1661   1.444       .  S
C1661      N1663   1.157       .  T
C1662      N1664   1.157       .  T
C1665      C1666   1.407       .  A
C1665      C1670   1.408       .  A
C1666      C1667   1.408       .  A
C1666      H1671   1.083       .  S
C1667      C1668   1.410       .  A
C1667      C1674   1.442       .  S
C1668      C1669   1.409       .  A
C1669      C1670   1.403       .  A
C1669      H1672   1.084       .  S
C1670      C1673   1.445       .  S
C1673      N1675   1.157       .  T
C1674      N1676   1.157       .  T
C1677      C1678   1.402       .  A
C1677      C1682   1.423       .  A
C1678      C1679   1.406       .  A
C1678      H1683   1.085       .  S
C1679      C1686   1.445       .  S
C1680      C1681   1.402       .  A
C1681      H1684   1.085       .  S
C1682      C1685   1.444       .  S
C1686      N1688   1.158       .  T
C1689      C1690   1.407       .  A
C1689      C1694   1.415       .  A
C1690      C1691   1.403       .  A
C1690      H1695   1.085       .  S
C1691      C1692   1.416       .  A
C1691      C1698   1.445       .  S
C1692      C1693   1.407       .  A
C1693      C1694   1.404       .  A
C1693      H1696   1.085       .  S
C1694      C1697   1.444       .  S
C1697      N1699   1.157       .  T
C1698      N1700   1.157       .  T
C1701      C1702   1.403       .  A
C1701      C1706   1.413       .  A
C1702      C1703   1.408       .  A
C1702      H1707   1.085       .  S
C1703      C1704   1.418       .  A
C1703      C1710   1.443       .  S
C1704      C1705   1.403       .  A
C1705      C1706   1.401       .  A
C1705      H1708   1.085       .  S
C1706      C1709   1.445       .  S
C1709      N1711   1.157       .  T
C1710      N1712   1.157       .  T
C1713      C1714   1.416   1_556  A
C1713      C1718   1.412       .  A
C1714      H1719   1.085       .  S
C1715      C1716   1.409       .  A
C1715      C1722   1.444       .  S
C1717      H1720   1.083       .  S
C1718      C1721   1.443       .  S
C1721      N1723   1.157   1_655  T
C1722      N1724   1.157       .  T
C1725      C1726   1.413       .  A
C1725      C1730   1.418       .  A
C1726      C1727   1.414   1_565  A
C1726      H1731   1.084       .  S
C1727      C1728   1.416       .  A
C1727      C1734   1.443       .  S
C1728      C1729   1.407       .  A
C1729      C1730   1.404   1_545  A
C1729      H1732   1.085       .  S
C1730      C1733   1.440       .  S
C1733      N1735   1.156       .  T
C1734      N1736   1.157       .  T
C1737      C1738   1.401       .  A
C1737      C1742   1.424       .  A
C1738      C1739   1.409       .  A
C1738      H1743   1.085       .  S
C1739      C1740   1.422       .  A
C1739      C1746   1.444       .  S
C1740      C1741   1.393       .  A
C1741      C1742   1.402       .  A
C1741      H1744   1.084       .  S
C1742      C1745   1.446       .  S
C1745      N1747   1.157       .  T
C1746      N1748   1.157       .  T
C1749      C1750   1.399       .  A
C1749      C1754   1.420       .  A
C1750      H1755   1.085       .  S
C1751      C1752   1.417       .  A
C1751      C1758   1.445       .  S
C1752      C1753   1.404       .  A
C1753      H1756   1.085       .  S
C1754      C1757   1.446       .  S
C1757      N1759   1.157       .  T
C1758      N1760   1.157       .  T
C1761      C1762   1.413       .  A
C1761      C1766   1.407       .  A
C1762      C1763   1.400       .  A
C1762      H1767   1.085       .  S
C1763      C1764   1.402       .  A
C1763      C1770   1.444       .  S
C1764      C1765   1.412       .  A
C1765      C1766   1.410       .  A
C1765      H1768   1.085       .  S
C1766      C1769   1.442       .  S
C1769      N1771   1.157       .  T
C1770      N1772   1.157       .  T
C1773      C1774   1.404       .  A
C1774      H1779   1.084       .  S
C1775      C1776   1.418       .  A
C1775      C1782   1.445       .  S
C1776      C1777   1.398       .  A
C1777      C1778   1.409   1_655  A
C1777      H1780   1.085       .  S
C1778      C1781   1.440       .  S
C1781      N1783   1.156       .  T
C1782      N1784   1.157       .  T
C1785      C1786   1.410       .  A
C1785      C1790   1.418       .  A
C1786      C1787   1.401   1_565  A
C1786      H1791   1.084       .  S
C1787      C1788   1.410       .  A
C1787      C1794   1.444       .  S
C1788      C1789   1.405       .  A
C1789      C1790   1.403   1_545  A
C1789      H1792   1.085       .  S
C1790      C1793   1.445       .  S
C1793      N1795   1.158       .  T
C1794      N1796   1.157       .  T
C1797      C1798   1.414       .  A
C1797      C1802   1.409       .  A
C1798      C1799   1.408       .  A
C1798      H1803   1.085       .  S
C1799      C1800   1.412       .  A
C1799      C1806   1.444       .  S
C1800      C1801   1.414       .  A
C1801      C1802   1.405       .  A
C1801      H1804   1.084       .  S
C1802      C1805   1.443       .  S
C1805      N1807   1.157       .  T
C1806      N1808   1.157       .  T
C1809      C1810   1.405       .  A
C1809      C1814   1.410       .  A
C1810      H1815   1.086       .  S
C1811      C1812   1.421       .  A
C1811      C1818   1.446       .  S
C1812      C1813   1.406       .  A
C1813      H1816   1.085       .  S
C1814      C1817   1.443       .  S
C1817      N1819   1.157       .  T
C1818      N1820   1.157       .  T
C1821      C1822   1.395       .  A
C1821      C1826   1.423       .  A
C1822      C1823   1.395   1_655  A
C1822      H1827   1.085       .  S
C1823      C1830   1.436       .  S
C1824      C1825   1.402       .  A
C1825      H1828   1.084       .  S
C1826      C1829   1.443       .  S
C1829      N1831   1.157       .  T
C1830      N1832   1.154       .  T
C1833      C1834   1.398       .  A
C1833      C1838   1.422       .  A
C1834      C1835   1.398       .  A
C1834      H1839   1.085       .  S
C1835      C1836   1.416       .  A
C1835      C1842   1.442       .  S
C1836      C1837   1.398       .  A
C1837      C1838   1.403       .  A
C1837      H1840   1.085       .  S
C1838      C1841   1.444       .  S
C1841      N1843   1.157       .  T
C1842      N1844   1.156       .  T
C1845      C1846   1.415       .  A
C1845      C1850   1.412       .  A
C1846      H1851   1.084       .  S
C1847      C1848   1.409       .  A
C1847      C1854   1.443       .  S
C1848      C1849   1.414   1_556  A
C1849      H1852   1.084   1_554  S
C1850      C1853   1.443       .  S
C1853      N1855   1.157       .  T
C1854      N1856   1.157       .  T
