geometry optimzed in LAMMPS
_audit_creation_date              2020-12-01 
_audit_creation_method            'lammps2cif' 
_symmetry_space_group_name_H-M    'P1' 
_symmetry_Int_Tables_number       1 
_symmetry_cell_setting            triclinic 
loop_ 
_symmetry_equiv_pos_as_xyz 
  x,y,z 
_cell_length_a                    30.26790856 
_cell_length_b                    45.242472330994126 
_cell_length_c                    30.339350089354706 
_cell_angle_alpha                 90.31768799991957 
_cell_angle_beta                  110.422519351286 
_cell_angle_gamma                 89.850553653891 
loop_ 
_atom_site_label 
_atom_site_type_symbol 
_atom_site_fract_x 
_atom_site_fract_y 
_atom_site_fract_z 
_atom_site_charge 
Fe1        Fe  0.63780298  0.83017891  0.25407994     1.65800
Fe2        Fe  0.72256640  0.84237189  0.20674495     1.73200
Fe3        Fe  0.70889174  0.77388043  0.24429758     1.54400
O4          O  0.72099942  0.77705807  0.31533564    -0.81800
O5          O  0.73081674  0.81025117  0.16220911    -0.80100
O6          O  0.66386083  0.80775116  0.31844215    -0.84300
O7          O  0.59433025  0.79555961  0.22320923    -0.79100
O8          O  0.77921637  0.78347654  0.25592077    -0.80900
O9          O  0.65977347  0.85336496  0.15523115    -0.83700
C10         C  0.60108269  0.76797643  0.22456419     0.97100
C11         C  0.69648638  0.78887003  0.33739066     1.04500
O12         O  0.68983834  0.81561680  0.23558345    -1.12600
O13         O  0.71954061  0.87888183  0.24682202    -0.75100
O14         O  0.67265765  0.86786315  0.28676898    -0.78600
O15         O  0.64191011  0.75685507  0.23422061    -0.79200
C16         C  0.69987132  0.88545354  0.27620434     0.96000
O17         O  0.60637222  0.85255402  0.19071729    -0.77200
O18         O  0.78807856  0.83211711  0.25463393    -0.82400
C19         C  0.71777949  0.78388052  0.15042805     0.98600
C20         C  0.80515745  0.80617044  0.26005271     1.04600
O21         O  0.69845478  0.76816973  0.17336541    -0.78000
C22         C  0.61792053  0.85692148  0.15466115     1.02900
Fe23       Fe  0.32171696  0.83489344  0.74031096     1.65800
Fe24       Fe  0.24363125  0.84071889  0.79822382     1.73200
Fe25       Fe  0.25329820  0.77581656  0.74531487     1.54400
O26         O  0.23858499  0.78343245  0.67499487    -0.81800
O27         O  0.24166072  0.80566494  0.84053911    -0.80100
O28         O  0.29227570  0.81673584  0.67280640    -0.84300
O29         O  0.36659589  0.79952965  0.76170110    -0.79100
O30         O  0.18311227  0.78425750  0.73697096    -0.80900
O31         O  0.30866628  0.85120268  0.84655068    -0.83700
C32         C  0.36049490  0.77182897  0.75908634     0.97100
C33         C  0.26023799  0.79777884  0.65284084     1.04500
O34         O  0.27279142  0.81720964  0.76098218    -1.12600
O35         O  0.24064894  0.87943023  0.76127451    -0.75100
O36         O  0.28421434  0.87338503  0.71617681    -0.78600
O37         O  0.32024685  0.76026251  0.75135412    -0.79200
C38         C  0.25679623  0.88873895  0.73055259     0.96000
O39         O  0.35755010  0.85361375  0.80620909    -0.77200
O40         O  0.17581738  0.83138752  0.75452054    -0.82400
C41         C  0.25310801  0.77857854  0.84446420     0.98600
C42         C  0.15802663  0.80617503  0.74041181     1.04600
O43         O  0.26598002  0.76466704  0.81454062    -0.78000
C44         C  0.34921455  0.85596445  0.84445384     1.02900
Fe45       Fe  0.82047439  0.65920730  0.73615994     1.65800
Fe46       Fe  0.74859421  0.64880994  0.80001456     1.73200
Fe47       Fe  0.75930351  0.71770930  0.75893954     1.54400
O48         O  0.82649957  0.73367602  0.76763421    -0.81800
O49         O  0.68016586  0.66237686  0.76549863    -0.80100
O50         O  0.86323747  0.69543556  0.75034305    -0.84300
O51         O  0.78103348  0.67710692  0.67021033    -0.79100
O52         O  0.77384293  0.72339987  0.83009296    -0.80900
O53         O  0.73683173  0.61347254  0.75398818    -0.83700
C54         C  0.75550159  0.70042937  0.65835575     0.97100
C55         C  0.86209518  0.72230538  0.76113937     1.04500
O56         O  0.77584109  0.67523142  0.76457956    -1.12600
O57         O  0.81435027  0.63336891  0.83959458    -0.75100
O58         O  0.86380580  0.64212676  0.80116133    -0.78600
O59         O  0.74393322  0.71610277  0.68757660    -0.79200
C60         C  0.85562785  0.63355322  0.83766653     0.96000
O61         O  0.78727040  0.61892511  0.71648741    -0.77200
O62         O  0.75605471  0.67953138  0.85223681    -0.82400
C63         C  0.66328732  0.68786897  0.75233724     0.98600
C64         C  0.76707297  0.70652171  0.86038493     1.04600
O65         O  0.68891333  0.70943431  0.74915512    -0.78000
C66         C  0.75693462  0.60387358  0.72652676     1.02900
Fe67       Fe  0.13930676  0.66560005  0.25534825     1.65800
Fe68       Fe  0.21518563  0.65259206  0.19650906     1.73200
Fe69       Fe  0.20144081  0.72264338  0.23085966     1.54400
O70         O  0.13466321  0.73877219  0.22221049    -0.81800
O71         O  0.28287551  0.66599776  0.23548029    -0.80100
O72         O  0.09364628  0.70049457  0.23221885    -0.84300
O73         O  0.17338165  0.68799173  0.31881408    -0.79100
O74         O  0.18586310  0.72536277  0.15892137    -0.80900
O75         O  0.22174230  0.61809514  0.24222801    -0.83700
C76         C  0.20088089  0.71040952  0.33071371     0.97100
C77         C  0.09704046  0.72759636  0.22405353     1.04500
O78         O  0.18549894  0.68023726  0.22822601    -1.12600
O79         O  0.15028053  0.63769900  0.15334913    -0.75100
O80         O  0.10058784  0.64418935  0.19248664    -0.78600
O81         O  0.21703826  0.72358095  0.30251923    -0.79200
C82         C  0.10923939  0.63650085  0.15573376     0.96000
O83         O  0.17574642  0.62702236  0.28356565    -0.77200
O84         O  0.21295086  0.68201066  0.14459193    -0.82400
C85         C  0.29858868  0.69227697  0.24209706     0.98600
C86         C  0.19790352  0.70788760  0.13217519     1.04600
O87         O  0.27170717  0.71430951  0.24006329    -0.78000
C88         C  0.20411715  0.61037889  0.27253544     1.02900
Fe89       Fe  0.63426618  0.15757886  0.27737976     1.65800
Fe90       Fe  0.70779493  0.14988237  0.21472850     1.73200
Fe91       Fe  0.69004369  0.21807337  0.25335577     1.54400
O92         O  0.62238445  0.23168891  0.24815909    -0.81800
O93         O  0.77452584  0.16498009  0.25207852    -0.80100
O94         O  0.58687755  0.19181244  0.26137791    -0.84300
O95         O  0.67137851  0.17769403  0.34266521    -0.79100
O96         O  0.67192230  0.22262528  0.18087745    -0.80900
O97         O  0.71949406  0.11425349  0.25859291    -0.83700
C98         C  0.69741229  0.20082614  0.35511623     0.97100
C99         C  0.58708501  0.21914520  0.25339229     1.04500
O100        O  0.67745417  0.17515940  0.24899047    -1.12600
O101        O  0.64365284  0.13335367  0.17316815    -0.75100
O102        O  0.59394423  0.13818615  0.21269863    -0.78600
O103        O  0.70865863  0.21659592  0.32582169    -0.79200
C104        C  0.60277991  0.13104958  0.17570853     0.96000
O105        O  0.67198092  0.11876055  0.29932317    -0.77200
O106        O  0.70096848  0.18063238  0.16390494    -0.82400
C107        C  0.78838023  0.19160017  0.25907395     0.98600
C108        C  0.68431064  0.20629323  0.15287463     1.04600
O109        O  0.76047234  0.21267220  0.25935344    -0.78000
C110        C  0.70171659  0.10412511  0.28729672     1.02900
Fe111      Fe  0.31240109  0.16032412  0.76100180     1.65800
Fe112      Fe  0.24293709  0.15075006  0.82760441     1.73200
Fe113      Fe  0.25606873  0.21969572  0.78853173     1.54400
O114        O  0.32404836  0.23412441  0.79657151    -0.81800
O115        O  0.17480978  0.16474262  0.79142778    -0.80100
O116        O  0.35849336  0.19519509  0.77783171    -0.84300
O117        O  0.27368714  0.18037947  0.69698314    -0.79100
O118        O  0.27179054  0.22456452  0.86027841    -0.80900
O119        O  0.23223260  0.11486488  0.78293501    -0.83700
C120        C  0.24823492  0.20372627  0.68615775     0.97100
C121        C  0.35891409  0.22210368  0.78937606     1.04500
O122        O  0.27041855  0.17691858  0.79211472    -1.12600
O123        O  0.30886720  0.13541496  0.86731342    -0.75100
O124        O  0.35482947  0.14047211  0.82378334    -0.78600
O125        O  0.23865450  0.21933223  0.71663972    -0.79200
C126        C  0.34856950  0.13320833  0.86185318     0.96000
O127        O  0.27495994  0.12155862  0.73782141    -0.77200
O128        O  0.24881298  0.18142804  0.87956473    -0.82400
C129        C  0.15887876  0.19072579  0.78018598     0.98600
C130        C  0.26139422  0.20807313  0.88895475     1.04600
O131        O  0.18558990  0.21231172  0.77948260    -0.78000
C132        C  0.24751793  0.10593003  0.75133502     1.02900
Fe133      Fe  0.81537824  0.33271081  0.76327563     1.65800
Fe134      Fe  0.73640305  0.34114266  0.81826378     1.73200
Fe135      Fe  0.74608506  0.27510996  0.77008256     1.54400
O136        O  0.73301055  0.28030824  0.69924823    -0.81800
O137        O  0.72565414  0.30695857  0.85752515    -0.80100
O138        O  0.79084238  0.31054842  0.69798099    -0.84300
O139        O  0.86009079  0.29859222  0.79180395    -0.79100
O140        O  0.67582625  0.28556496  0.75979284    -0.80900
O141        O  0.80118894  0.34776455  0.86960748    -0.83700
C142        C  0.85418772  0.27092293  0.78844403     0.97100
C143        C  0.75869559  0.29152573  0.67826115     1.04500
O144        O  0.76557547  0.31634582  0.78307990    -1.12600
O145        O  0.74160031  0.37976348  0.78415781    -0.75100
O146        O  0.77596362  0.36952452  0.73234415    -0.78600
O147        O  0.81365593  0.25910826  0.77831089    -0.79200
C148        C  0.75356843  0.38714749  0.74963141     0.96000
O149        O  0.84797056  0.35454827  0.82792882    -0.77200
O150        O  0.66947121  0.33404327  0.77039569    -0.82400
C151        C  0.73796639  0.28016349  0.86518484     0.98600
C152        C  0.65111080  0.30850443  0.75980257     1.04600
O153        O  0.75732209  0.26615782  0.84030251    -0.78000
C154        C  0.84128203  0.35372785  0.86724786     1.02900
Fe155      Fe  0.13427792  0.33703326  0.28441883     1.65800
Fe156      Fe  0.21687499  0.34483583  0.23274589     1.73200
Fe157      Fe  0.20217857  0.27819838  0.27540437     1.54400
O158        O  0.21366667  0.28243278  0.34619339    -0.81800
O159        O  0.22510879  0.31119825  0.19096845    -0.80100
O160        O  0.16083781  0.31633521  0.35037828    -0.84300
O161        O  0.08934532  0.30229829  0.25838251    -0.79100
O162        O  0.27316356  0.28706000  0.28785650    -0.80900
O163        O  0.15293544  0.35356047  0.18120189    -0.83700
C164        C  0.09424392  0.27461518  0.25687714     0.97100
C165        C  0.19103756  0.29592442  0.36859154     1.04500
O166        O  0.18478376  0.32015873  0.26517089    -1.12600
O167        O  0.21450517  0.38341437  0.26870811    -0.75100
O168        O  0.17053248  0.37562937  0.31272193    -0.78600
O169        O  0.13416397  0.26256993  0.26440018    -0.79200
C170        C  0.19668431  0.39211858  0.29857640     0.96000
O171        O  0.10146164  0.35697767  0.21892488    -0.77200
O172        O  0.28302830  0.33539832  0.28058667    -0.82400
C173        C  0.21088143  0.28495550  0.18041517     0.98600
C174        C  0.29954726  0.30932885  0.28984820     1.04600
O175        O  0.19189063  0.27040146  0.20482074    -0.78000
C176        C  0.11144027  0.35772701  0.18138585     1.02900
C177        C  0.96577216  0.36277720  0.95805197    -0.27700
C178        C  0.95723876  0.36188162  0.00080165     0.01900
C179        C  0.91005486  0.35982617  0.99882426     0.30000
C180        C  0.87302145  0.35872617  0.95531315    -0.19500
C181        C  0.88154236  0.35873089  0.91248409    -0.28900
C182        C  0.92879700  0.36073471  0.91446365     0.44000
C183        C  0.99762708  0.36193764  0.04692284     0.05200
O184        O  0.89956400  0.35776609  0.03918337    -0.57400
H185        H  0.83737694  0.35681797  0.95537016     0.18100
O186        O  0.93971869  0.35929002  0.87428212    -0.64100
H187        H  0.00150293  0.36469253  0.95827930     0.16600
C188        C  0.03787874  0.34414909  0.05364331     0.28800
C189        C  0.07516975  0.34434712  0.09685135    -0.25000
C190        C  0.07291515  0.36110731  0.13516050    -0.24300
C191        C  0.03261870  0.37853279  0.12904835     0.40300
C192        C  0.99588887  0.37927602  0.08510064    -0.26800
O193        O  0.04064787  0.32558824  0.01879533    -0.58700
H194        H  0.10525473  0.33014871  0.10101488     0.15900
O195        O  0.02866970  0.39485497  0.16571430    -0.60100
H196        H  0.96588635  0.39347884  0.08098906     0.14400
H197        H  0.94121494  0.38012597  0.86497709     0.46200
H198        H  0.02325205  0.30751928  0.02143333     0.41600
H199        H  0.04151137  0.41459515  0.16282642     0.45100
H200        H  0.90196272  0.33642048  0.04694170     0.36500
C201        C  0.19425059  0.25293055  0.57875434    -0.27700
C202        C  0.21216590  0.24006765  0.54633568     0.01900
C203        C  0.23737587  0.21327291  0.55824739     0.30000
C204        C  0.24679308  0.20082539  0.60288116    -0.19500
C205        C  0.23119072  0.21456197  0.63653016    -0.28900
C206        C  0.20330010  0.24049819  0.62325692     0.44000
C207        C  0.20653969  0.25561756  0.50145572     0.05200
O208        O  0.25389359  0.19934870  0.52682924    -0.57400
H209        H  0.26775395  0.18083434  0.61159081     0.18100
O210        O  0.18519489  0.25430699  0.65362333    -0.64100
H211        H  0.17463904  0.27345183  0.57032321     0.16600
C212        C  0.16202252  0.26522346  0.47105167     0.28800
C213        C  0.15794642  0.28007255  0.42926104    -0.25000
C214        C  0.19772956  0.28533806  0.41670221    -0.24300
C215        C  0.24230756  0.27607081  0.44744267     0.40300
C216        C  0.24646489  0.26160292  0.48945682    -0.26800
O217        O  0.12198845  0.25842897  0.48032828    -0.58700
H218        H  0.12318960  0.28610430  0.40540249     0.15900
O219        O  0.28198871  0.28049758  0.43632038    -0.60100
H220        H  0.28109936  0.25488125  0.51272093     0.14400
H221        H  0.20677408  0.27109264  0.66723554     0.46200
H222        H  0.11104750  0.27739690  0.48948128     0.41600
H223        H  0.29142138  0.30123926  0.44556612     0.45100
H224        H  0.22729141  0.18694816  0.50706599     0.36500
C225        C  0.23837757  0.25877742  0.97828409    -0.27700
C226        C  0.24503511  0.23947197  0.01619086     0.01900
C227        C  0.26077508  0.21049264  0.01331060     0.30000
C228        C  0.26825750  0.20097956  0.97249533    -0.19500
C229        C  0.26093142  0.22016030  0.93422013    -0.28900
C230        C  0.24673761  0.24948377  0.93781342     0.44000
C231        C  0.23655433  0.25019853  0.05884911     0.05200
O232        O  0.26855224  0.19122499  0.04999781    -0.57400
H233        H  0.27911484  0.17832096  0.97046135     0.18100
O234        O  0.23750892  0.26857335  0.90070302    -0.64100
H235        H  0.22569862  0.28105510  0.97966344     0.16600
C236        C  0.25888738  0.27601261  0.08169320     0.28800
C237        C  0.25023829  0.28646991  0.12117040    -0.25000
C238        C  0.21888615  0.27185589  0.13881544    -0.24300
C239        C  0.19676122  0.24574274  0.11624685     0.40300
C240        C  0.20576526  0.23506663  0.07657887    -0.26800
O241        O  0.29077092  0.29057735  0.06671571    -0.58700
H242        H  0.26868839  0.30624299  0.13813871     0.15900
O243        O  0.16627637  0.23058167  0.13230390    -0.60100
H244        H  0.18810112  0.21519414  0.05916149     0.14400
H245        H  0.26509659  0.28200149  0.90922680     0.46200
H246        H  0.27467800  0.30903902  0.05191994     0.41600
H247        H  0.13517767  0.24017599  0.11714498     0.45100
H248        H  0.30202300  0.19416560  0.07004930     0.36500
C249        C  0.53727208  0.30904061  0.78527660    -0.27700
C250        C  0.51710793  0.28227027  0.76407495     0.01900
C251        C  0.53592605  0.26820188  0.73290852     0.30000
C252        C  0.57732530  0.27892260  0.72782158    -0.19500
C253        C  0.60048354  0.30388954  0.75300080    -0.28900
C254        C  0.57851155  0.31996453  0.77979041     0.44000
C255        C  0.47835786  0.26821930  0.77645456     0.05200
O256        O  0.51401339  0.24386752  0.70740890    -0.57400
H257        H  0.59278862  0.26666247  0.70602873     0.18100
O258        O  0.59867953  0.34523112  0.80341479    -0.64100
H259        H  0.52263179  0.32063534  0.80836704     0.16600
C260        C  0.48230441  0.23868207  0.79195915     0.28800
C261        C  0.44403529  0.22463362  0.79871779    -0.25000
C262        C  0.40136167  0.23965443  0.79160262    -0.24300
C263        C  0.39885425  0.27001418  0.78026169     0.40300
C264        C  0.43707246  0.28399560  0.77256839    -0.26800
O265        O  0.52322500  0.22307200  0.79969516    -0.58700
H266        H  0.44744359  0.20149555  0.80839650     0.15900
O267        O  0.35812746  0.28567504  0.77308515    -0.60100
H268        H  0.43369468  0.30690881  0.76170171     0.14400
H269        H  0.61790131  0.33871755  0.83555846     0.46200
H270        H  0.54008158  0.22395197  0.83417939     0.41600
H271        H  0.36323333  0.29640776  0.80305323     0.45100
H272        H  0.53684926  0.22735619  0.71800464     0.36500
C273        C  0.98117467  0.25060573  0.81055787    -0.27700
C274        C  0.97607002  0.22636963  0.78017828     0.01900
C275        C  0.93100296  0.21389851  0.75851716     0.30000
C276        C  0.89146679  0.22697639  0.76493158    -0.19500
C277        C  0.89625084  0.25265958  0.79257099    -0.28900
C278        C  0.94199827  0.26365944  0.81700609     0.44000
C279        C  0.01834541  0.21510671  0.77120304     0.05200
O280        O  0.92491375  0.18990860  0.72918375    -0.57400
H281        H  0.85676212  0.21821492  0.74563665     0.18100
O282        O  0.94873387  0.28816039  0.84546838    -0.64100
H283        H  0.01577950  0.25994713  0.82856046     0.16600
C284        C  0.04555547  0.23420500  0.75447598     0.28800
C285        C  0.08976014  0.22514107  0.75423672    -0.25000
C286        C  0.10789310  0.19700357  0.77063617    -0.24300
C287        C  0.07845203  0.17693991  0.78313852     0.40300
C288        C  0.03428638  0.18616479  0.78366240    -0.26800
O289        O  0.02928375  0.26193610  0.73870980    -0.58700
H290        H  0.11071874  0.24078384  0.74304743     0.15900
O291        O  0.09360930  0.14893860  0.79807561    -0.60100
H292        H  0.01352304  0.17112210  0.79617365     0.14400
H293        H  0.94713487  0.28084323  0.87562537     0.46200
H294        H  0.04765100  0.27573060  0.76397527     0.41600
H295        H  0.08123545  0.13631599  0.76958260     0.45100
H296        H  0.91838112  0.19828641  0.69739649     0.36500
C297        C  0.78419616  0.26436092  0.56997734    -0.27700
C298        C  0.74075234  0.25164833  0.54278569     0.01900
C299        C  0.70281278  0.25369647  0.55949894     0.30000
C300        C  0.70871109  0.26770479  0.60254839    -0.19500
C301        C  0.75212825  0.28031532  0.62996448    -0.28900
C302        C  0.79010921  0.27849501  0.61310375     0.44000
C303        C  0.73457811  0.23707170  0.49651681     0.05200
O304        O  0.65956825  0.24208958  0.53397040    -0.57400
H305        H  0.67907445  0.26847335  0.61473676     0.18100
O306        O  0.83369303  0.28943832  0.63918168    -0.64100
H307        H  0.81405976  0.26278089  0.55823781     0.13400
C308        C  0.74585165  0.25209342  0.46133191     0.28800
C309        C  0.73539052  0.23939548  0.41652887    -0.25000
C310        C  0.71364244  0.21142918  0.40528708    -0.24300
C311        C  0.70457294  0.19573936  0.44140987     0.40300
C312        C  0.71492051  0.20857095  0.48629801    -0.26800
O313        O  0.76397137  0.28018654  0.46925785    -0.58700
H314        H  0.74288705  0.25223541  0.38994677     0.15900
O315        O  0.68417507  0.16829065  0.43304128    -0.60100
H316        H  0.70676314  0.19634729  0.51309628     0.14400
H317        H  0.84962265  0.27325826  0.66092896     0.46200
H318        H  0.79778124  0.27801909  0.47327671     0.41600
H319        H  0.71096011  0.15414816  0.44180419     0.45100
H320        H  0.64372245  0.25749243  0.51060181     0.36500
C321        C  0.69395665  0.25499367  0.05539054    -0.27700
C322        C  0.69524162  0.23360343  0.02206777     0.01900
C323        C  0.68778122  0.20380077  0.02987495     0.30000
C324        C  0.68104956  0.19560439  0.07139120    -0.19500
C325        C  0.68185923  0.21679466  0.10595144    -0.28900
C326        C  0.68715219  0.24682286  0.09702634     0.44000
C327        C  0.70421128  0.24289373  0.97931308     0.05200
O328        O  0.68792212  0.18248396  0.99759803    -0.57400
H329        H  0.67659437  0.17235198  0.07717207     0.18100
O330        O  0.68918535  0.26809703  0.13002264    -0.64100
H331        H  0.69963623  0.27807542  0.04966178     0.16600
C332        C  0.67454922  0.26376377  0.94912606     0.28800
C333        C  0.68579519  0.27495986  0.91170380    -0.25000
C334        C  0.72638150  0.26545439  0.90313794    -0.24300
C335        C  0.75490369  0.24339037  0.93185533     0.40300
C336        C  0.74368490  0.23221240  0.96978077    -0.26800
O337        O  0.63481449  0.27375229  0.95644652    -0.58700
H338        H  0.66266777  0.29141371  0.88937064     0.15900
O339        O  0.79454789  0.23347564  0.92433816    -0.60100
H340        H  0.76671221  0.21599715  0.99275680     0.14400
H341        H  0.65634329  0.27533179  0.12180036     0.46200
H342        H  0.61020622  0.25879331  0.94131482     0.41600
H343        H  0.82041418  0.24642537  0.94398355     0.45100
H344        H  0.65437981  0.18017050  0.97715912     0.36500
C345        C  0.90751759  0.18972899  0.24217682    -0.27700
C346        C  0.92536952  0.21776000  0.25891435     0.01900
C347        C  0.90023596  0.23589149  0.27984789     0.30000
C348        C  0.85692373  0.22651583  0.28192532    -0.19500
C349        C  0.83783460  0.19887275  0.26361803    -0.28900
C350        C  0.86420560  0.18019803  0.24436624     0.44000
C351        C  0.96886214  0.22886958  0.25248893     0.05200
O352        O  0.91716566  0.26325322  0.29726768    -0.57400
H353        H  0.83763087  0.24131364  0.29685847     0.18100
O354        O  0.84648361  0.15353403  0.22432212    -0.64100
H355        H  0.92634933  0.17563037  0.22572451     0.16600
C356        C  0.01344416  0.21668000  0.27726430     0.28800
C357        C  0.05447148  0.23041889  0.27564113    -0.25000
C358        C  0.05157709  0.25623686  0.24914295    -0.24300
C359        C  0.00663910  0.26686890  0.22134641     0.40300
C360        C  0.96587132  0.25335186  0.22344434    -0.26800
O361        O  0.01742195  0.19280150  0.30603089    -0.58700
H362        H  0.08856401  0.22199111  0.29753440     0.15900
O363        O  0.00220103  0.29132937  0.19359537    -0.60100
H364        H  0.93172458  0.26260146  0.20343587     0.14400
H365        H  0.85974556  0.13876543  0.24960487     0.46200
H366        H  0.01849926  0.17536193  0.28651070     0.41600
H367        H  0.00054206  0.28350559  0.16245675     0.45100
H368        H  0.94070757  0.25950755  0.32895530     0.36500
C369        C  0.46502123  0.23892153  0.25421765    -0.27700
C370        C  0.47199324  0.26773437  0.27269364     0.01900
C371        C  0.51560269  0.28165338  0.28005281     0.30000
C372        C  0.55194168  0.26629325  0.27067795    -0.19500
C373        C  0.54565112  0.23691663  0.25405485    -0.28900
C374        C  0.50118866  0.22352382  0.24510470     0.44000
C375        C  0.43338218  0.28231095  0.28476515     0.05200
O376        O  0.52415341  0.30941182  0.29957779    -0.57400
H377        H  0.58593371  0.27689663  0.27884548     0.18100
O378        O  0.49263718  0.19529286  0.22745678    -0.64100
H379        H  0.43141351  0.22805460  0.24750730     0.16600
C380        C  0.41185807  0.30855269  0.26256850     0.28800
C381        C  0.37086304  0.31915677  0.26903748    -0.25000
C382        C  0.34987358  0.30352090  0.29657457    -0.24300
C383        C  0.37325503  0.27839024  0.32126492     0.40300
C384        C  0.41466572  0.26809331  0.31541116    -0.26800
O385        O  0.42850015  0.32282355  0.23177326    -0.58700
H386        H  0.35321668  0.33822310  0.24906593     0.15900
O387        O  0.35513877  0.26327579  0.35021309    -0.60100
H388        H  0.43111158  0.24811318  0.33331011     0.14400
H389        H  0.49442476  0.18267933  0.25468545     0.46200
H390        H  0.41308705  0.31287319  0.20102023     0.41600
H391        H  0.34079592  0.24516024  0.33258175     0.45100
H392        H  0.52527492  0.32254848  0.27392615     0.36500
C393        C  0.47027947  0.12938319  0.95641249    -0.27700
C394        C  0.46054488  0.11372312  0.99191921     0.01900
C395        C  0.41568398  0.10092563  0.98146843     0.30000
C396        C  0.38046103  0.10582995  0.93772443    -0.19500
C397        C  0.38912309  0.12318489  0.90322301    -0.28900
C398        C  0.43513505  0.13407919  0.91235677     0.44000
C399        C  0.49567389  0.11345590  0.04072484     0.05200
O400        O  0.40532178  0.08450014  0.01445249    -0.57400
H401        H  0.34561333  0.09686635  0.93141145     0.18100
O402        O  0.44547160  0.15091113  0.87974541    -0.64100
H403        H  0.50447626  0.13954029  0.96370769     0.16600
C404        C  0.54279531  0.10510500  0.04979496     0.28800
C405        C  0.57639708  0.10877256  0.09497109    -0.25000
C406        C  0.56428369  0.12133806  0.13190463    -0.24300
C407        C  0.51647565  0.12812482  0.12333936     0.40300
C408        C  0.48274015  0.12406110  0.07820765    -0.26800
O409        O  0.55631984  0.09333359  0.01466580    -0.58700
H410        H  0.61263365  0.10285363  0.10046459     0.15900
O411        O  0.50255921  0.14021770  0.15793709    -0.60100
H412        H  0.44666700  0.13075719  0.07190958     0.14400
H413        H  0.44086262  0.17169151  0.88781635     0.46200
H414        H  0.57527631  0.10893719  0.00679300     0.41600
H415        H  0.50402791  0.16191166  0.15407216     0.45100
H416        H  0.41643283  0.06422874  0.01123202     0.36500
C417        C  0.24014295  0.52913712  0.28682172    -0.27700
C418        C  0.21666548  0.51878459  0.31620865     0.01900
C419        C  0.19491374  0.53960965  0.33688377     0.30000
C420        C  0.19382135  0.56978501  0.32504330    -0.19500
C421        C  0.21417487  0.57981296  0.29254701    -0.28900
C422        C  0.23908219  0.55906141  0.27491278     0.44000
C423        C  0.21250183  0.48608801  0.32132113     0.05200
O424        O  0.17520927  0.53068622  0.36909022    -0.57400
H425        H  0.17539130  0.58514113  0.34006105     0.18100
O426        O  0.26115273  0.56740702  0.24440225    -0.64100
H427        H  0.25749845  0.51365380  0.27083219     0.16600
C428        C  0.16796894  0.47239774  0.30997695     0.28800
C429        C  0.16408150  0.44144841  0.30741921    -0.25000
C430        C  0.20377725  0.42353722  0.31386946    -0.24300
C431        C  0.24841064  0.43703653  0.32650922     0.40300
C432        C  0.25258000  0.46794229  0.33067773    -0.26800
O433        O  0.12753221  0.48900272  0.29739966    -0.58700
H434        H  0.12931537  0.43155744  0.29637171     0.15900
O435        O  0.28793880  0.42030332  0.33267119    -0.60100
H436        H  0.28710529  0.47787037  0.33909257     0.14400
H437        H  0.23846728  0.56277091  0.21257772     0.46200
H438        H  0.11834520  0.49189682  0.26297600     0.41600
H439        H  0.29995877  0.41513891  0.36652517     0.45100
H440        H  0.14114937  0.53529938  0.35494662     0.36500
C441        C  0.77832096  0.52422989  0.70048631    -0.27700
C442        C  0.73532573  0.51093028  0.69700468     0.01900
C443        C  0.69693738  0.52938360  0.69502680     0.30000
C444        C  0.70343159  0.55997777  0.70196554    -0.19500
C445        C  0.74744902  0.57297269  0.70889598    -0.28900
C446        C  0.78434750  0.55491800  0.70565242     0.44000
C447        C  0.73347750  0.47829613  0.70373183     0.05200
O448        O  0.65350941  0.51756161  0.68889436    -0.57400
H449        H  0.67438869  0.57344890  0.70360031     0.18100
O450        O  0.82809865  0.56653413  0.71266105    -0.64100
H451        H  0.80859761  0.51071103  0.70277296     0.16600
C452        C  0.75365392  0.45771709  0.68109385     0.28800
C453        C  0.75818819  0.42780947  0.69470369    -0.25000
C454        C  0.74260393  0.41781223  0.73070410    -0.24300
C455        C  0.71918159  0.43816955  0.75055981     0.40300
C456        C  0.71566894  0.46791204  0.73771531    -0.26800
O457        O  0.76848175  0.46658304  0.64534435    -0.58700
H458        H  0.77512946  0.41263761  0.67783525     0.15900
O459        O  0.70125899  0.42970781  0.78428150    -0.60100
H460        H  0.70057554  0.48319056  0.75618000     0.14400
H461        H  0.82798602  0.57130073  0.68075387     0.46200
H462        H  0.80332704  0.46442057  0.65767812     0.41600
H463        H  0.66860209  0.42304300  0.76654897     0.45100
H464        H  0.63790074  0.51541383  0.65434687     0.36500
C465        C  0.97753755  0.62746060  0.93360093    -0.27700
C466        C  0.96533458  0.61899637  0.97244805     0.01900
C467        C  0.91814469  0.61150676  0.96480640     0.30000
C468        C  0.88375340  0.61460138  0.92016641    -0.19500
C469        C  0.89504397  0.62507405  0.88167626    -0.28900
C470        C  0.94295663  0.63046673  0.88853580     0.44000
C471        C  0.00091328  0.62018797  0.02113133     0.05200
O472        O  0.90483742  0.60195511  0.00115333    -0.57400
H473        H  0.84757368  0.60970701  0.91629232     0.18100
O474        O  0.95627663  0.63958888  0.85199761    -0.64100
H475        H  0.01368075  0.63320267  0.93853245     0.16600
C476        C  0.04591036  0.60731054  0.03227624     0.28800
C477        C  0.07993094  0.61124154  0.07718685    -0.25000
C478        C  0.06996374  0.62770871  0.11215474    -0.24300
C479        C  0.02414162  0.63932191  0.10166345     0.40300
C480        C  0.99032241  0.63562501  0.05660009    -0.26800
O481        O  0.05742298  0.59133355  0.99927773    -0.58700
H482        H  0.11479084  0.60202609  0.08425184     0.15900
O483        O  0.01271700  0.65587618  0.13414993    -0.60100
H484        H  0.95618730  0.64604046  0.04880399     0.14400
H485        H  0.96632677  0.66042780  0.85935622     0.46200
H486        H  0.04474593  0.57124554  0.00011013     0.41600
H487        H  0.01886953  0.67662914  0.12768523     0.45100
H488        H  0.91202370  0.58048934  0.00382473     0.36500
C489        C  0.27332000  0.96891860  0.70540738    -0.27700
C490        C  0.22997208  0.98123205  0.70333638     0.01900
C491        C  0.19261885  0.96202439  0.70126367     0.30000
C492        C  0.20078531  0.93143506  0.70715135    -0.19500
C493        C  0.24549861  0.91950175  0.71358882    -0.28900
C494        C  0.28105709  0.93834621  0.70993694     0.44000
C495        C  0.22674396  0.01383195  0.70979469     0.05200
O496        O  0.14825271  0.97308271  0.69362976    -0.57400
H497        H  0.17254167  0.91713041  0.70828092     0.18100
O498        O  0.32508311  0.92754458  0.71566063    -0.64100
H499        H  0.30241354  0.98319757  0.70665161     0.16600
C500        C  0.21326688  0.02510532  0.74668171     0.28800
C501        C  0.21697188  0.05535968  0.75717317    -0.25000
C502        C  0.23563439  0.07517516  0.73261934    -0.24300
C503        C  0.24778104  0.06405273  0.69466911     0.40300
C504        C  0.24326693  0.03371042  0.68360544    -0.26800
O505        O  0.19955879  0.00651985  0.77509342    -0.58700
H506        H  0.20789321  0.06294221  0.78686302     0.15900
O507        O  0.26614396  0.08228494  0.66947013    -0.60100
H508        H  0.25425500  0.02551392  0.65541526     0.14400
H509        H  0.32498276  0.92414708  0.68332710     0.46200
H510        H  0.22928331  0.99936495  0.79892168     0.41600
H511        H  0.23879279  0.08831472  0.64168833     0.45100
H512        H  0.14008758  0.96731488  0.72133834     0.36500
C513        C  0.21776535  0.72139408  0.46031543    -0.27700
C514        C  0.22562700  0.75204936  0.46550239     0.01900
C515        C  0.22721532  0.76845023  0.42686667     0.30000
C516        C  0.22093219  0.75426550  0.38402119    -0.19500
C517        C  0.21215613  0.72363869  0.37833894    -0.28900
C518        C  0.21082126  0.70720481  0.41717480     0.44000
C519        C  0.23214119  0.76663221  0.51133209     0.05200
O520        O  0.23369698  0.79849534  0.43023745    -0.57400
H521        H  0.22125272  0.76759595  0.35457173     0.18100
O522        O  0.20259980  0.67735047  0.41341854    -0.64100
H523        H  0.21709779  0.70837081  0.48992751     0.16600
C524        C  0.19831540  0.76346529  0.53308609     0.28800
C525        C  0.20672356  0.77534990  0.57796524    -0.25000
C526        C  0.24888986  0.79045294  0.60223543    -0.24300
C527        C  0.28167033  0.79496807  0.57926900     0.40300
C528        C  0.27317110  0.78302248  0.53429523    -0.26800
O529        O  0.15663395  0.74905847  0.51042998    -0.58700
H530        H  0.18055697  0.77195550  0.59434744     0.15900
O531        O  0.32359204  0.80916472  0.60154956    -0.60100
H532        H  0.29957557  0.78564975  0.51800204     0.14400
H533        H  0.23422717  0.66812254  0.42197565     0.46200
H534        H  0.15974739  0.72957555  0.52606760     0.41600
H535        H  0.31743906  0.83020733  0.59242190     0.45100
H536        H  0.20178390  0.80696561  0.42363683     0.36500
C537        C  0.19600422  0.73767456  0.91736609    -0.27700
C538        C  0.22650302  0.74454589  0.96299045     0.01900
C539        C  0.26914846  0.75939456  0.96912339     0.30000
C540        C  0.27939696  0.76869797  0.92980154    -0.19500
C541        C  0.24790944  0.76288409  0.88436754    -0.28900
C542        C  0.20649125  0.74675884  0.87815018     0.44000
C543        C  0.21359828  0.73598109  0.00390765     0.05200
O544        O  0.30119039  0.76442352  0.01338401    -0.57400
H545        H  0.31119631  0.78129979  0.93477068     0.18100
O546        O  0.17437683  0.74178857  0.83393984    -0.64100
H547        H  0.16321748  0.72614107  0.91216507     0.16600
C548        C  0.21105355  0.75707343  0.03733111     0.28800
C549        C  0.20310263  0.74795955  0.07794914    -0.25000
C550        C  0.19713247  0.71789603  0.08558344    -0.24300
C551        C  0.19584388  0.69715091  0.05009523     0.40300
C552        C  0.20425702  0.70627459  0.00986097    -0.26800
O553        O  0.21735269  0.78656189  0.03114729    -0.58700
H554        H  0.20368451  0.76429502  0.10439137     0.15900
O555        O  0.18806125  0.66768780  0.05503512    -0.60100
H556        H  0.20502004  0.68991774  0.98390260     0.14400
H557        H  0.18421179  0.72286854  0.82348053     0.46200
H558        H  0.18627327  0.79370049  0.00982624     0.41600
H559        H  0.15336914  0.66571727  0.04581449     0.45100
H560        H  0.30158415  0.78615635  0.01807109     0.36500
C561        C  0.43759279  0.71122617  0.73580803    -0.27700
C562        C  0.48257053  0.72361572  0.75685306     0.01900
C563        C  0.48746634  0.74973857  0.78348029     0.30000
C564        C  0.44759944  0.76420346  0.78620521    -0.19500
C565        C  0.40205489  0.75295063  0.76286685    -0.28900
C566        C  0.39742128  0.72573859  0.73848018     0.44000
C567        C  0.52416234  0.71095010  0.74831416     0.05200
O568        O  0.53113157  0.76196381  0.80546655    -0.57400
H569        H  0.45230620  0.78489794  0.80544659     0.18100
O570        O  0.35377539  0.71399061  0.71482840    -0.64100
H571        H  0.43339192  0.69105573  0.71534094     0.16600
C572        C  0.54491968  0.68425894  0.76900544     0.28800
C573        C  0.58886455  0.67570897  0.76707906    -0.25000
C574        C  0.61255163  0.69345875  0.74433320    -0.24300
C575        C  0.58936829  0.71878618  0.72001791     0.40300
C576        C  0.54585988  0.72742696  0.72251070    -0.26800
O577        O  0.52446056  0.66765644  0.79434819    -0.58700
H578        H  0.60568941  0.65611473  0.78598559     0.15900
O579        O  0.60984457  0.73610857  0.69553080    -0.60100
H580        H  0.52973955  0.74776056  0.70566551     0.14400
H581        H  0.34413529  0.72242515  0.68272421     0.46200
H582        H  0.50461052  0.65300411  0.77162199     0.41600
H583        H  0.60308850  0.72595274  0.66479837     0.45100
H584        H  0.54333936  0.75237338  0.83673118     0.36500
C585        C  0.03997988  0.76771730  0.71076948    -0.27700
C586        C  0.01956325  0.78386946  0.73845407     0.01900
C587        C  0.04129968  0.81021565  0.76008508     0.30000
C588        C  0.08472915  0.81871346  0.75696087    -0.19500
C589        C  0.10719036  0.80118958  0.73245275    -0.28900
C590        C  0.08314807  0.77621777  0.70742525     0.44000
C591        C  0.97962555  0.77058502  0.74928824     0.05200
O592        O  0.02284844  0.82617499  0.78814474    -0.57400
H593        H  0.10242375  0.83790675  0.77674852     0.18100
O594        O  0.10268841  0.75894052  0.68172989    -0.64100
H595        H  0.02336243  0.74755644  0.69340494     0.16600
C596        C  0.93525057  0.78443133  0.73793621     0.28800
C597        C  0.89765632  0.76951456  0.74538632    -0.25000
C598        C  0.90359292  0.74059775  0.76345040    -0.24300
C599        C  0.94870456  0.72752988  0.77667005     0.40300
C600        C  0.98607226  0.74253634  0.76989522    -0.26800
O601        O  0.92766412  0.81185554  0.71763819    -0.58700
H602        H  0.86319497  0.77983904  0.73433617     0.15900
O603        O  0.95656205  0.69981283  0.79592153    -0.60100
H604        H  0.02017835  0.73179313  0.77968247     0.14400
H605        H  0.09407236  0.76873834  0.65071810     0.46200
H606        H  0.91771257  0.80809247  0.68330925     0.41600
H607        H  0.95820388  0.68653237  0.77040260     0.45100
H608        H  0.00895199  0.84407865  0.76976414     0.36500
C609        C  0.75233215  0.96012197  0.32336465    -0.27700
C610        C  0.71136021  0.97764986  0.31209342     0.01900
C611        C  0.66696308  0.96366822  0.29335834     0.30000
C612        C  0.66422504  0.93304236  0.28578794    -0.19500
C613        C  0.70506677  0.91593731  0.29485217    -0.28900
C614        C  0.74940831  0.92958713  0.31434112     0.44000
C615        C  0.71525184  0.01058646  0.31442258     0.05200
O616        O  0.62628153  0.98006836  0.27745326    -0.57400
H617        H  0.62988260  0.92297296  0.26927820     0.18100
O618        O  0.79001620  0.91351705  0.32297794    -0.64100
H619        H  0.78678587  0.97034119  0.33756461     0.16600
C620        C  0.68755791  0.02824764  0.33321869     0.28800
C621        C  0.68600281  0.05900882  0.32723101    -0.25000
C622        C  0.71262465  0.07295379  0.30344525    -0.24300
C623        C  0.74396767  0.05544319  0.28894159     0.40300
C624        C  0.74487814  0.02468687  0.29433976    -0.26800
O625        O  0.66070425  0.01563493  0.35627493    -0.58700
H626        H  0.66214983  0.07176353  0.33943333     0.15900
O627        O  0.77288668  0.06794547  0.26800780    -0.60100
H628        H  0.76717660  0.01170276  0.28039956     0.14400
H629        H  0.79599912  0.90425609  0.35407911     0.46200
H630        H  0.68184922  0.01426562  0.38958875     0.41600
H631        H  0.75724465  0.06423996  0.23385475     0.45100
H632        H  0.60772793  0.97428486  0.29732976     0.36500
C633        C  0.73291654  0.70798299  0.52678213    -0.27700
C634        C  0.72551303  0.73865007  0.52090219     0.01900
C635        C  0.72465500  0.75587584  0.55920089     0.30000
C636        C  0.73218605  0.74267126  0.60272512    -0.19500
C637        C  0.74136986  0.71212327  0.60954312    -0.28900
C638        C  0.74057844  0.69465622  0.57062952     0.44000
C639        C  0.71913598  0.75273439  0.47499743     0.05200
O640        O  0.71794728  0.78587547  0.55483820    -0.57400
H641        H  0.73275597  0.75684263  0.63182194     0.18100
O642        O  0.74750519  0.66470295  0.57498926    -0.64100
H643        H  0.73285746  0.69437216  0.49727377     0.16600
C644        C  0.75536445  0.75223190  0.45597919     0.28800
C645        C  0.74826372  0.76511930  0.41209777    -0.25000
C646        C  0.70520820  0.77889180  0.38645444    -0.24300
C647        C  0.66965665  0.78038602  0.40666267     0.40300
C648        C  0.67677474  0.76729710  0.45041298    -0.26800
O649        O  0.79828922  0.73990256  0.48066079    -0.58700
H650        H  0.77646277  0.76401829  0.39787293     0.15900
O651        O  0.62678332  0.79305481  0.38289365    -0.60100
H652        H  0.64870385  0.76803316  0.46484867     0.14400
H653        H  0.71603012  0.65629538  0.57076743     0.46200
H654        H  0.79681066  0.71945231  0.46830366     0.41600
H655        H  0.62916611  0.81356147  0.39524149     0.45100
H656        H  0.75002360  0.79440118  0.56340747     0.36500
C657        C  0.77079169  0.71118029  0.98606523    -0.27700
C658        C  0.75383691  0.73987452  0.98722122     0.01900
C659        C  0.74667792  0.75868712  0.94853757     0.30000
C660        C  0.75431566  0.74818225  0.90836483    -0.19500
C661        C  0.76870001  0.71886011  0.90604579    -0.28900
C662        C  0.77834656  0.70059982  0.94589485     0.44000
C663        C  0.74458918  0.75024254  0.02932309     0.05200
O664        O  0.73079675  0.78706086  0.94914424    -0.57400
H665        H  0.74657489  0.76253507  0.87812231     0.18100
O666        O  0.79566532  0.67251734  0.94605281    -0.64100
H667        H  0.77783222  0.69688192  0.01629198     0.16600
C668        C  0.70992107  0.73691576  0.04380400     0.28800
C669        C  0.70155425  0.74761350  0.08366932    -0.25000
C670        C  0.72743814  0.77166192  0.10929460    -0.24300
C671        C  0.76321056  0.78426956  0.09517215     0.40300
C672        C  0.77101303  0.77374992  0.05528999    -0.26800
O673        O  0.68370587  0.71370953  0.01887277    -0.58700
H674        H  0.67431996  0.73745102  0.09401113     0.15900
O675        O  0.79130340  0.80676025  0.12031829    -0.60100
H676        H  0.79829565  0.78379649  0.04484325     0.14400
H677        H  0.76853003  0.65916799  0.94181343     0.46200
H678        H  0.65659696  0.72292619  0.99408055     0.41600
H679        H  0.81795343  0.79682465  0.14470672     0.45100
H680        H  0.69591284  0.78552299  0.93724524     0.36500
C681        C  0.92194872  0.81349662  0.24078659    -0.27700
C682        C  0.93807072  0.78419099  0.24821332     0.01900
C683        C  0.91531205  0.76422129  0.26866184     0.30000
C684        C  0.87453069  0.77278557  0.27709839    -0.19500
C685        C  0.85537504  0.80121629  0.26527776    -0.28900
C686        C  0.88103807  0.82215378  0.24938865     0.44000
C687        C  0.97741682  0.77386007  0.23330946     0.05200
O688        O  0.93270437  0.73614376  0.28025657    -0.57400
H689        H  0.85637359  0.75645677  0.29049047     0.18100
O690        O  0.86453207  0.85040338  0.23838118    -0.64100
H691        H  0.93972317  0.82930683  0.22606764     0.16600
C692        C  0.97126959  0.74912386  0.20329655     0.28800
C693        C  0.01038505  0.73538796  0.19769250    -0.25000
C694        C  0.05593890  0.74667527  0.21993704    -0.24300
C695        C  0.06140573  0.77354550  0.24519789     0.40300
C696        C  0.02225057  0.78683013  0.25207512    -0.26800
O697        O  0.92737971  0.73719609  0.18132985    -0.58700
H698        H  0.00531304  0.71505035  0.17759444     0.15900
O699        O  0.10535917  0.78525389  0.26749386    -0.60100
H700        H  0.02743692  0.80618434  0.27450003     0.14400
H701        H  0.87763830  0.86171865  0.26819133     0.46200
H702        H  0.91222821  0.75003423  0.15374462     0.41600
H703        H  0.10981386  0.79980400  0.24502807     0.45100
H704        H  0.90899676  0.72271343  0.25864793     0.36500
C705        C  0.42172240  0.68441322  0.23526163    -0.27700
C706        C  0.43631423  0.71403495  0.23966047     0.01900
C707        C  0.40863170  0.73543540  0.25181997     0.30000
C708        C  0.36561756  0.72754870  0.25599532    -0.19500
C709        C  0.34896479  0.69825902  0.24827079    -0.28900
C710        C  0.37857329  0.67639365  0.23962472     0.44000
C711        C  0.47891338  0.72313220  0.22932955     0.05200
O712        O  0.42254143  0.76446188  0.25802623    -0.57400
H713        H  0.34429650  0.74484738  0.26330815     0.18100
O714        O  0.36447538  0.64745621  0.23218793    -0.64100
H715        H  0.44279857  0.66762484  0.22631812     0.16600
C716        C  0.52414015  0.71231490  0.25541785     0.28800
C717        C  0.56424341  0.72518891  0.25017328    -0.25000
C718        C  0.55980746  0.74877300  0.21890569    -0.24300
C719        C  0.51433287  0.75741798  0.18948927     0.40300
C720        C  0.47445213  0.74472350  0.19495929    -0.26800
O721        O  0.52972561  0.69118135  0.28916343    -0.58700
H722        H  0.59884425  0.71831333  0.27331167     0.15900
O723        O  0.50851190  0.77952452  0.15717800    -0.60100
H724        H  0.43982794  0.75269016  0.17361226     0.14400
H725        H  0.37861050  0.63782747  0.26325337     0.46200
H726        H  0.53607619  0.67257723  0.27501184     0.41600
H727        H  0.50585400  0.76925143  0.12738428     0.45100
H728        H  0.44233404  0.76624395  0.29174675     0.36500
C729        C  0.50133824  0.88063967  0.06261296    -0.27700
C730        C  0.50615812  0.86951375  0.02106979     0.01900
C731        C  0.54983260  0.85709458  0.02370659     0.30000
C732        C  0.58665145  0.85499668  0.06708329    -0.19500
C733        C  0.58075766  0.86432621  0.10899506    -0.28900
C734        C  0.53788688  0.87785675  0.10626285     0.44000
C735        C  0.46475583  0.86894734  0.97606939     0.05200
O736        O  0.55631462  0.84550882  0.98452409    -0.57400
H737        H  0.61912601  0.84436931  0.06811633     0.18100
O738        O  0.53086299  0.88784299  0.14606986    -0.64100
H739        H  0.46863656  0.89097591  0.06144165     0.16600
C740        C  0.42056192  0.85838961  0.97497273     0.28800
C741        C  0.38303189  0.85583248  0.93220159    -0.25000
C742        C  0.38848021  0.86285552  0.88925473    -0.24300
C743        C  0.43231539  0.87414111  0.89033721     0.40300
C744        C  0.46970340  0.87732402  0.93339392    -0.26800
O745        O  0.41403745  0.84927093  0.01531998    -0.58700
H746        H  0.35001985  0.84691959  0.93270001     0.15900
O747        O  0.43949517  0.88160128  0.84961078    -0.60100
H748        H  0.50296824  0.88602336  0.93328962     0.14400
H749        H  0.53902405  0.90914287  0.14823225     0.46200
H750        H  0.41945665  0.82761809  0.01659980     0.41600
H751        H  0.42807590  0.90224638  0.84313248     0.45100
H752        H  0.54649135  0.82453303  0.98324566     0.36500
loop_ 
_geom_bond_atom_site_label_1 
_geom_bond_atom_site_label_2 
_geom_bond_distance 
_geom_bond_site_symmetry_2 
_ccdc_geom_bond_type 
Fe1          O17   2.089       .  S
Fe1           O7   2.048       .  S
Fe1          O14   2.065       .  S
Fe1           O6   2.099       .  S
Fe1          O12   1.959       .  S
Fe2           O5   2.052       .  S
Fe2           O9   2.057       .  S
Fe2          O13   2.066       .  S
Fe2          O18   2.062       .  S
Fe2          O12   1.958       .  S
Fe3          O21   2.078       .  S
Fe3           O8   2.079       .  S
Fe3          O15   2.090       .  S
Fe3           O4   2.061       .  S
Fe3          O12   1.965       .  S
O4           C11   1.274       .  A
O5           C19   1.267       .  A
O6           C11   1.281       .  A
O7           C10   1.263       .  A
O8           C20   1.273       .  A
O9           C22   1.271       .  A
C10          O15   1.270       .  A
C10         C718   1.483       .  S
C11         C646   1.491       .  S
O13          C16   1.266       .  A
O14          C16   1.267       .  A
C16         C613   1.476       .  S
O17          C22   1.276       .  A
O18          C20   1.270       .  A
C19          O21   1.274       .  A
C19         C670   1.481       .  S
C20         C685   1.489       .  S
C22         C733   1.487       .  S
Fe23         O39   2.089       .  S
Fe23         O29   2.052       .  S
Fe23         O36   2.069       .  S
Fe23         O28   2.092       .  S
Fe23         O34   1.971       .  S
Fe24         O27   2.060       .  S
Fe24         O31   2.057       .  S
Fe24         O35   2.069       .  S
Fe24         O40   2.061       .  S
Fe24         O34   1.966       .  S
Fe25         O43   2.064       .  S
Fe25         O30   2.084       .  S
Fe25         O37   2.090       .  S
Fe25         O26   2.053       .  S
Fe25         O34   1.970       .  S
O26          C33   1.272       .  A
O27          C41   1.268       .  A
O28          C33   1.277       .  A
O29          C32   1.265       .  A
O30          C42   1.273       .  A
O31          C44   1.270       .  A
C32          O37   1.271       .  A
C32         C565   1.490       .  S
C33         C526   1.487       .  S
O35          C38   1.268       .  A
O36          C38   1.268       .  A
C38         C493   1.484       .  S
O39          C44   1.274       .  A
O40          C42   1.269       .  A
C41          O43   1.269       .  A
C41         C541   1.462       .  S
C42         C589   1.490       .  S
C44         C742   1.492       .  S
Fe45         O61   2.066       .  S
Fe45         O51   2.105       .  S
Fe45         O58   2.101       .  S
Fe45         O50   2.040       .  S
Fe45         O56   1.974       .  S
Fe46         O49   2.062       .  S
Fe46         O53   2.065       .  S
Fe46         O57   2.056       .  S
Fe46         O62   2.054       .  S
Fe46         O56   1.976       .  S
Fe47         O65   2.081       .  S
Fe47         O52   2.062       .  S
Fe47         O59   2.051       .  S
Fe47         O48   2.088       .  S
Fe47         O56   1.978       .  S
O48          C55   1.268       .  A
O49          C63   1.269       .  A
O50          C55   1.261       .  A
O51          C54   1.283       .  A
O52          C64   1.269       .  A
O53          C66   1.265       .  A
C54          O59   1.273       .  A
C54         C637   1.490       .  S
C55         C598   1.487       .  S
O57          C60   1.271       .  A
O58          C60   1.279       .  A
C60         C469   1.498       .  S
O61          C66   1.265       .  A
O62          C64   1.267       .  A
C63          O65   1.273       .  A
C63         C574   1.490       .  S
C64         C661   1.476       .  S
C66         C445   1.486       .  S
Fe67         O83   2.084       .  S
Fe67         O73   2.097       .  S
Fe67         O80   2.092       .  S
Fe67         O72   2.054       .  S
Fe67         O78   1.971       .  S
Fe68         O71   2.067       .  S
Fe68         O75   2.057       .  S
Fe68         O79   2.057       .  S
Fe68         O84   2.051       .  S
Fe68         O78   1.970       .  S
Fe69         O87   2.080       .  S
Fe69         O74   2.070       .  S
Fe69         O81   2.058       .  S
Fe69         O70   2.076       .  S
Fe69         O78   1.974       .  S
O70          C77   1.266       .  A
O71          C85   1.270       .  A
O72          C77   1.264       .  A
O73          C76   1.282       .  A
O74          C86   1.270       .  A
O75          C88   1.264       .  A
C76          O81   1.275       .  A
C76         C517   1.487       .  S
C77         C694   1.482       .  S
O79          C82   1.271       .  A
O80          C82   1.277       .  A
C82         C478   1.490       .  S
O83          C88   1.269       .  A
O84          C86   1.266       .  A
C85          O87   1.273       .  A
C85         C709   1.495       .  S
C86         C550   1.479       .  S
C88         C421   1.501       .  S
Fe89        O105   2.074       .  S
Fe89         O95   2.109       .  S
Fe89        O102   2.104       .  S
Fe89         O94   2.050       .  S
Fe89        O100   1.970       .  S
Fe90         O93   2.057       .  S
Fe90         O97   2.046       .  S
Fe90        O101   2.051       .  S
Fe90        O106   2.039       .  S
Fe90        O100   1.970       .  S
Fe91        O109   2.089       .  S
Fe91         O96   2.084       .  S
Fe91        O103   2.072       .  S
Fe91         O92   2.090       .  S
Fe91        O100   1.974       .  S
O92          C99   1.269       .  A
O93         C107   1.268       .  A
O94          C99   1.262       .  A
O95          C98   1.285       .  A
O96         C108   1.274       .  A
O97         C110   1.261       .  A
C98         O103   1.278       .  A
C98         C310   1.503       .  S
C99         C373   1.494       .  S
O101        C104   1.271       .  A
O102        C104   1.281       .  A
C104        C406   1.494       .  S
O105        C110   1.267       .  A
O106        C108   1.264       .  A
C107        O109   1.274       .  A
C107        C349   1.492       .  S
C108        C325   1.480       .  S
C110        C622   1.493       .  S
Fe111       O127   2.073       .  S
Fe111       O117   2.096       .  S
Fe111       O124   2.095       .  S
Fe111       O116   2.050       .  S
Fe111       O122   1.973       .  S
Fe112       O115   2.069       .  S
Fe112       O119   2.061       .  S
Fe112       O123   2.059       .  S
Fe112       O128   2.055       .  S
Fe112       O122   1.974       .  S
Fe113       O131   2.081       .  S
Fe113       O118   2.070       .  S
Fe113       O125   2.057       .  S
Fe113       O114   2.091       .  S
Fe113       O122   1.978       .  S
O114        C121   1.270       .  A
O115        C129   1.272       .  A
O116        C121   1.264       .  A
O117        C120   1.281       .  A
O118        C130   1.270       .  A
O119        C132   1.265       .  A
C120        O125   1.271       .  A
C120        C205   1.496       .  S
C121        C262   1.493       .  S
O123        C126   1.273       .  A
O124        C126   1.279       .  A
C126        C397   1.489       .  S
O127        C132   1.266       .  A
O128        C130   1.266       .  A
C129        O131   1.274       .  A
C129        C286   1.494       .  S
C130        C229   1.480       .  S
C132        C502   1.496       .  S
Fe133       O149   2.105       .  S
Fe133       O139   2.037       .  S
Fe133       O146   2.075       .  S
Fe133       O138   2.106       .  S
Fe133       O144   1.956       .  S
Fe134       O137   2.052       .  S
Fe134       O141   2.056       .  S
Fe134       O145   2.070       .  S
Fe134       O150   2.064       .  S
Fe134       O144   1.954       .  S
Fe135       O153   2.079       .  S
Fe135       O140   2.092       .  S
Fe135       O147   2.099       .  S
Fe135       O136   2.060       .  S
Fe135       O144   1.954       .  S
O136        C143   1.272       .  A
O137        C151   1.266       .  A
O138        C143   1.280       .  A
O139        C142   1.263       .  A
O140        C152   1.278       .  A
O141        C154   1.270       .  A
C142        O147   1.274       .  A
C142        C277   1.485       .  S
C143        C301   1.494       .  S
O145        C148   1.269       .  A
O146        C148   1.269       .  A
C148        C454   1.496       .  S
O149        C154   1.278       .  A
O150        C152   1.273       .  A
C151        O153   1.271       .  A
C151        C334   1.478       .  S
C152        C253   1.488       .  S
C154        C181   1.500       .  S
Fe155       O171   2.095       .  S
Fe155       O161   2.047       .  S
Fe155       O168   2.080       .  S
Fe155       O160   2.103       .  S
Fe155       O166   1.968       .  S
Fe156       O159   2.045       .  S
Fe156       O163   2.059       .  S
Fe156       O167   2.068       .  S
Fe156       O172   2.067       .  S
Fe156       O166   1.960       .  S
Fe157       O175   2.082       .  S
Fe157       O162   2.087       .  S
Fe157       O169   2.092       .  S
Fe157       O158   2.060       .  S
Fe157       O166   1.966       .  S
O158        C165   1.273       .  A
O159        C173   1.265       .  A
O160        C165   1.282       .  A
O161        C164   1.263       .  A
O162        C174   1.275       .  A
O163        C176   1.271       .  A
C164        O169   1.271       .  A
C164        C358   1.485       .  S
C165        C214   1.484       .  S
O167        C170   1.266       .  A
O168        C170   1.269       .  A
C170        C430   1.485       .  S
O171        C176   1.277       .  A
O172        C174   1.274       .  A
C173        O175   1.271       .  A
C173        C238   1.486       .  S
C174        C382   1.487       .  S
C176        C190   1.487       .  S
C177        C178   1.409   1_556  A
C177        C182   1.406       .  A
C177        H187   1.083   1_655  S
C178        C183   1.503       .  S
C178        C179   1.412   1_554  A
C179        C180   1.403       .  A
C179        O184   1.372   1_556  S
C180        C181   1.410       .  A
C180        H185   1.083       .  S
C181        C182   1.414       .  A
C182        O186   1.371       .  S
C183        C188   1.413   1_655  A
C183        C192   1.411       .  A
O184        H200   0.992       .  S
O186        H197   0.991       .  S
C188        C189   1.400       .  A
C188        O193   1.372       .  S
C189        C190   1.406       .  A
C189        H194   1.084       .  S
C190        C191   1.408       .  A
C191        C192   1.407   1_455  A
C191        O195   1.371       .  S
C192        H196   1.083       .  S
O193        H198   0.992       .  S
O195        H199   0.991       .  S
C201        C202   1.402       .  A
C201        C206   1.401       .  A
C201        H211   1.083       .  S
C202        C207   1.492       .  S
C202        C203   1.411       .  A
C203        C204   1.404       .  A
C203        O208   1.371       .  S
C204        C205   1.407       .  A
C204        H209   1.083       .  S
C205        C206   1.419       .  A
C206        O210   1.372       .  S
C207        C212   1.410       .  A
C207        C216   1.406       .  A
O208        H224   0.992       .  S
O210        H221   0.992       .  S
C212        C213   1.405       .  A
C212        O217   1.372       .  S
C213        C214   1.405       .  A
C213        H218   1.084       .  S
C214        C215   1.410       .  A
C215        C216   1.402       .  A
C215        O219   1.372       .  S
C216        H220   1.083       .  S
O217        H222   0.992       .  S
O219        H223   0.992       .  S
C225        C226   1.405   1_556  A
C225        C230   1.400       .  A
C225        H235   1.083       .  S
C226        C231   1.483       .  S
C226        C227   1.406       .  A
C227        C228   1.400   1_554  A
C227        O232   1.372       .  S
C228        C229   1.408       .  A
C228        H233   1.084       .  S
C229        C230   1.409       .  A
C230        O234   1.372       .  S
C231        C236   1.403       .  A
C231        C240   1.408       .  A
O232        H248   0.992       .  S
O234        H245   0.992       .  S
C236        C237   1.392       .  A
C236        O241   1.373       .  S
C237        C238   1.409       .  A
C237        H242   1.084       .  S
C238        C239   1.410       .  A
C239        C240   1.406       .  A
C239        O243   1.371       .  S
C240        H244   1.083       .  S
O241        H246   0.993       .  S
O243        H247   0.992       .  S
C249        C250   1.405       .  A
C249        C254   1.407       .  A
C249        H259   1.083       .  S
C250        C255   1.495       .  S
C250        C251   1.411       .  A
C251        C252   1.403       .  A
C251        O256   1.374       .  S
C252        C253   1.404       .  A
C252        H257   1.084       .  S
C253        C254   1.414       .  A
C254        O258   1.372       .  S
C255        C260   1.410       .  A
C255        C264   1.407       .  A
O256        H272   0.992       .  S
O258        H269   0.991       .  S
C260        C261   1.400       .  A
C260        O265   1.372       .  S
C261        C262   1.407       .  A
C261        H266   1.084       .  S
C262        C263   1.413       .  A
C263        C264   1.409       .  A
C263        O267   1.371       .  S
C264        H268   1.083       .  S
O265        H270   0.992       .  S
O267        H271   0.992       .  S
C273        C274   1.402       .  A
C273        C278   1.396       .  A
C273        H283   1.084   1_655  S
C274        C279   1.486   1_655  S
C274        C275   1.409       .  A
C275        C276   1.406       .  A
C275        O280   1.371       .  S
C276        C277   1.407       .  A
C276        H281   1.083       .  S
C277        C278   1.413       .  A
C278        O282   1.372       .  S
C279        C284   1.408       .  A
C279        C288   1.402       .  A
O280        H296   0.992       .  S
O282        H293   0.992       .  S
C284        C285   1.401       .  A
C284        O289   1.373       .  S
C285        C286   1.408       .  A
C285        H290   1.083       .  S
C286        C287   1.416       .  A
C287        C288   1.405       .  A
C287        O291   1.371       .  S
C288        H292   1.083       .  S
O289        H294   0.993       .  S
O291        H295   0.992       .  S
C297        C298   1.408       .  A
C297        C302   1.407       .  A
C297        H307   1.083       .  S
C298        C303   1.499       .  S
C298        C299   1.411       .  A
C299        C300   1.403       .  A
C299        O304   1.371       .  S
C300        C301   1.407       .  A
C300        H305   1.083       .  S
C301        C302   1.414       .  A
C302        O306   1.372       .  S
C303        C308   1.408       .  A
C303        C312   1.408       .  A
O304        H320   0.992       .  S
O306        H317   0.993       .  S
C308        C309   1.404       .  A
C308        O313   1.372       .  S
C309        C310   1.412       .  A
C309        H314   1.083       .  S
C310        C311   1.414       .  A
C311        C312   1.409       .  A
C311        O315   1.371       .  S
C312        H316   1.083       .  S
O313        H318   0.992       .  S
O315        H319   0.993       .  S
C321        C322   1.406       .  A
C321        C326   1.401       .  A
C321        H331   1.084       .  S
C322        C327   1.478   1_554  S
C322        C323   1.403       .  A
C323        C324   1.397       .  A
C323        O328   1.372   1_554  S
C324        C325   1.411       .  A
C324        H329   1.084       .  S
C325        C326   1.407       .  A
C326        O330   1.371       .  S
C327        C332   1.403       .  A
C327        C336   1.408       .  A
O328        H344   0.993       .  S
O330        H341   0.992       .  S
C332        C333   1.392       .  A
C332        O337   1.372       .  S
C333        C334   1.407       .  A
C333        H338   1.084       .  S
C334        C335   1.408       .  A
C335        C336   1.405       .  A
C335        O339   1.371       .  S
C336        H340   1.083       .  S
O337        H342   0.992       .  S
O339        H343   0.992       .  S
C345        C346   1.401       .  A
C345        C350   1.405       .  A
C345        H355   1.084       .  S
C346        C351   1.486       .  S
C346        C347   1.408       .  A
C347        C348   1.401       .  A
C347        O352   1.372       .  S
C348        C349   1.407       .  A
C348        H353   1.083       .  S
C349        C350   1.417       .  A
C350        O354   1.371       .  S
C351        C356   1.408   1_655  A
C351        C360   1.402       .  A
O352        H368   0.992       .  S
O354        H365   0.993       .  S
C356        C357   1.406       .  A
C356        O361   1.371       .  S
C357        C358   1.407       .  A
C357        H362   1.083       .  S
C358        C359   1.412       .  A
C359        C360   1.400   1_455  A
C359        O363   1.372       .  S
C360        H364   1.084       .  S
O361        H366   0.991       .  S
O363        H367   0.992       .  S
C369        C370   1.403       .  A
C369        C374   1.402       .  A
C369        H379   1.084       .  S
C370        C375   1.492       .  S
C370        C371   1.409       .  A
C371        C372   1.409       .  A
C371        O376   1.372       .  S
C372        C373   1.409       .  A
C372        H377   1.083       .  S
C373        C374   1.414       .  A
C374        O378   1.372       .  S
C375        C380   1.409       .  A
C375        C384   1.405       .  A
O376        H392   0.992       .  S
O378        H389   0.992       .  S
C380        C381   1.405       .  A
C380        O385   1.371       .  S
C381        C382   1.408       .  A
C381        H386   1.084       .  S
C382        C383   1.411       .  A
C383        C384   1.404       .  A
C383        O387   1.373       .  S
C384        H388   1.084       .  S
O385        H390   0.992       .  S
O387        H391   0.991       .  S
C393        C394   1.407       .  A
C393        C398   1.405       .  A
C393        H403   1.083       .  S
C394        C399   1.492   1_556  S
C394        C395   1.408       .  A
C395        C396   1.401       .  A
C395        O400   1.371   1_556  S
C396        C397   1.408       .  A
C396        H401   1.084       .  S
C397        C398   1.411       .  A
C398        O402   1.372       .  S
C399        C404   1.406       .  A
C399        C408   1.407       .  A
O400        H416   0.992       .  S
O402        H413   0.992       .  S
C404        C405   1.402       .  A
C404        O409   1.373       .  S
C405        C406   1.411       .  A
C405        H410   1.083       .  S
C406        C407   1.411       .  A
C407        C408   1.405       .  A
C407        O411   1.371       .  S
C408        H412   1.083       .  S
O409        H414   0.992       .  S
O411        H415   0.992       .  S
C417        C418   1.403       .  A
C417        C422   1.401       .  A
C417        H427   1.084       .  S
C418        C423   1.498       .  S
C418        C419   1.412       .  A
C419        C420   1.411       .  A
C419        O424   1.373       .  S
C420        C421   1.410       .  A
C420        H425   1.083       .  S
C421        C422   1.417       .  A
C422        O426   1.372       .  S
C423        C428   1.413       .  A
C423        C432   1.408       .  A
O424        H440   0.991       .  S
O426        H437   0.992       .  S
C428        C429   1.405       .  A
C428        O433   1.371       .  S
C429        C430   1.404       .  A
C429        H434   1.084       .  S
C430        C431   1.409       .  A
C431        C432   1.405       .  A
C431        O435   1.371       .  S
C432        H436   1.083       .  S
O433        H438   0.992       .  S
O435        H439   0.992       .  S
C441        C442   1.405       .  A
C441        C446   1.402       .  A
C441        H451   1.083       .  S
C442        C447   1.495       .  S
C442        C443   1.413       .  A
C443        C444   1.403       .  A
C443        O448   1.371       .  S
C444        C445   1.404       .  A
C444        H449   1.083       .  S
C445        C446   1.413       .  A
C446        O450   1.371       .  S
C447        C452   1.412       .  A
C447        C456   1.403       .  A
O448        H464   0.992       .  S
O450        H461   0.992       .  S
C452        C453   1.409       .  A
C452        O457   1.373       .  S
C453        C454   1.409       .  A
C453        H458   1.083       .  S
C454        C455   1.415       .  A
C455        C456   1.396       .  A
C455        O459   1.371       .  S
C456        H460   1.083       .  S
O457        H462   0.993       .  S
O459        H463   0.993       .  S
C465        C466   1.408       .  A
C465        C470   1.409       .  A
C465        H475   1.083   1_655  S
C466        C471   1.495   1_656  S
C466        C467   1.407       .  A
C467        C468   1.398       .  A
C467        O472   1.372   1_556  S
C468        C469   1.411       .  A
C468        H473   1.083       .  S
C469        C470   1.413       .  A
C470        O474   1.371       .  S
C471        C476   1.409       .  A
C471        C480   1.407   1_455  A
O472        H488   0.992       .  S
O474        H485   0.991       .  S
C476        C477   1.403       .  A
C476        O481   1.371   1_554  S
C477        C478   1.409       .  A
C477        H482   1.083       .  S
C478        C479   1.411       .  A
C479        C480   1.402   1_455  A
C479        O483   1.371       .  S
C480        H484   1.083       .  S
O481        H486   0.991   1_556  S
O483        H487   0.992       .  S
C489        C490   1.405       .  A
C489        C494   1.402       .  A
C489        H499   1.083       .  S
C490        C495   1.494   1_565  S
C490        C491   1.411       .  A
C491        C492   1.407       .  A
C491        O496   1.374       .  S
C492        C493   1.405       .  A
C492        H497   1.084       .  S
C493        C494   1.409       .  A
C494        O498   1.371       .  S
C495        C500   1.411       .  A
C495        C504   1.406       .  A
O496        H512   0.992       .  S
O498        H509   0.991       .  S
C500        C501   1.399       .  A
C500        O505   1.372       .  S
C501        C502   1.408       .  A
C501        H506   1.083       .  S
C502        C503   1.415       .  A
C503        C504   1.407       .  A
C503        O507   1.371       .  S
C504        H508   1.083       .  S
O505        H510   0.992   1_545  S
O507        H511   0.992       .  S
C513        C514   1.406       .  A
C513        C518   1.403       .  A
C513        H523   1.083       .  S
C514        C519   1.485       .  S
C514        C515   1.406       .  A
C515        C516   1.399       .  A
C515        O520   1.372       .  S
C516        C517   1.410       .  A
C516        H521   1.084       .  S
C517        C518   1.409       .  A
C518        O522   1.371       .  S
C519        C524   1.406       .  A
C519        C528   1.405       .  A
O520        H536   0.992       .  S
O522        H533   0.992       .  S
C524        C525   1.400       .  A
C524        O529   1.372       .  S
C525        C526   1.408       .  A
C525        H530   1.084       .  S
C526        C527   1.413       .  A
C527        C528   1.403       .  A
C527        O531   1.371       .  S
C528        H532   1.084       .  S
O529        H534   0.992       .  S
O531        H535   0.992       .  S
C537        C538   1.404       .  A
C537        C542   1.398       .  A
C537        H547   1.084       .  S
C538        C543   1.479   1_556  S
C538        C539   1.410       .  A
C539        C540   1.400       .  A
C539        O544   1.373   1_556  S
C540        C541   1.399       .  A
C540        H545   1.084       .  S
C541        C542   1.406       .  A
C542        O546   1.372       .  S
C543        C548   1.410       .  A
C543        C552   1.400       .  A
O544        H560   0.992       .  S
O546        H557   0.992       .  S
C548        C549   1.400       .  A
C548        O553   1.371       .  S
C549        C550   1.404       .  A
C549        H554   1.083       .  S
C550        C551   1.415       .  A
C551        C552   1.396       .  A
C551        O555   1.372       .  S
C552        H556   1.084   1_554  S
O553        H558   0.992       .  S
O555        H559   0.992       .  S
C561        C562   1.403       .  A
C561        C566   1.407       .  A
C561        H571   1.083       .  S
C562        C567   1.484       .  S
C562        C563   1.406       .  A
C563        C564   1.399       .  A
C563        O568   1.372       .  S
C564        C565   1.407       .  A
C564        H569   1.084       .  S
C565        C566   1.415       .  A
C566        O570   1.371       .  S
C567        C572   1.406       .  A
C567        C576   1.403       .  A
O568        H584   0.992       .  S
O570        H581   0.992       .  S
C572        C573   1.405       .  A
C572        O577   1.371       .  S
C573        C574   1.411       .  A
C573        H578   1.083       .  S
C574        C575   1.412       .  A
C575        C576   1.400       .  A
C575        O579   1.371       .  S
C576        H580   1.084       .  S
O577        H582   0.992       .  S
O579        H583   0.992       .  S
C585        C586   1.405       .  A
C585        C590   1.400       .  A
C585        H595   1.084       .  S
C586        C591   1.488   1_455  S
C586        C587   1.407       .  A
C587        C588   1.405       .  A
C587        O592   1.371       .  S
C588        C589   1.410       .  A
C588        H593   1.083       .  S
C589        C590   1.411       .  A
C590        O594   1.372       .  S
C591        C596   1.411       .  A
C591        C600   1.401       .  A
O592        H608   0.992       .  S
O594        H605   0.991       .  S
C596        C597   1.409       .  A
C596        O601   1.371       .  S
C597        C598   1.408       .  A
C597        H602   1.083       .  S
C598        C599   1.411       .  A
C599        C600   1.397       .  A
C599        O603   1.371       .  S
C600        H604   1.084   1_655  S
O601        H606   0.992       .  S
O603        H607   0.992       .  S
C609        C610   1.409       .  A
C609        C614   1.404       .  A
C609        H619   1.083       .  S
C610        C615   1.494   1_565  S
C610        C611   1.413       .  A
C611        C612   1.401       .  A
C611        O616   1.373       .  S
C612        C613   1.401       .  A
C612        H617   1.084       .  S
C613        C614   1.407       .  A
C614        O618   1.371       .  S
C615        C620   1.411       .  A
C615        C624   1.404       .  A
O616        H632   0.993       .  S
O618        H629   0.992       .  S
C620        C621   1.403       .  A
C620        O625   1.371       .  S
C621        C622   1.408       .  A
C621        H626   1.083       .  S
C622        C623   1.416       .  A
C623        C624   1.401       .  A
C623        O627   1.373       .  S
C624        H628   1.083       .  S
O625        H630   0.992       .  S
O627        H631   0.991       .  S
C633        C634   1.407       .  A
C633        C638   1.407       .  A
C633        H643   1.083       .  S
C634        C639   1.485       .  S
C634        C635   1.403       .  A
C635        C636   1.397       .  A
C635        O640   1.372       .  S
C636        C637   1.411       .  A
C636        H641   1.083       .  S
C637        C638   1.410       .  A
C638        O642   1.371       .  S
C639        C644   1.406       .  A
C639        C648   1.403       .  A
O640        H656   0.992       .  S
O642        H653   0.992       .  S
C644        C645   1.402       .  A
C644        O649   1.372       .  S
C645        C646   1.409       .  A
C645        H650   1.083       .  S
C646        C647   1.413       .  A
C647        C648   1.403       .  A
C647        O651   1.371       .  S
C648        H652   1.084       .  S
O649        H654   0.992       .  S
O651        H655   0.992       .  S
C657        C658   1.399       .  A
C657        C662   1.398       .  A
C657        H667   1.084   1_556  S
C658        C663   1.474   1_556  S
C658        C659   1.408       .  A
C659        C660   1.398       .  A
C659        O664   1.372       .  S
C660        C661   1.404       .  A
C660        H665   1.084       .  S
C661        C662   1.412       .  A
C662        O666   1.373       .  S
C663        C668   1.409       .  A
C663        C672   1.395       .  A
O664        H680   0.992       .  S
O666        H677   0.992       .  S
C668        C669   1.403       .  A
C668        O673   1.371       .  S
C669        C670   1.404       .  A
C669        H674   1.083       .  S
C670        C671   1.418       .  A
C671        C672   1.392       .  A
C671        O675   1.372       .  S
C672        H676   1.084       .  S
O673        H678   0.992   1_554  S
O675        H679   0.993       .  S
C681        C682   1.404       .  A
C681        C686   1.406       .  A
C681        H691   1.083       .  S
C682        C687   1.487       .  S
C682        C683   1.408       .  A
C683        C684   1.399       .  A
C683        O688   1.374       .  S
C684        C685   1.405       .  A
C684        H689   1.084       .  S
C685        C686   1.415       .  A
C686        O690   1.371       .  S
C687        C692   1.410       .  A
C687        C696   1.404   1_655  A
O688        H704   0.992       .  S
O690        H701   0.991       .  S
C692        C693   1.397   1_655  A
C692        O697   1.372       .  S
C693        C694   1.403       .  A
C693        H698   1.082       .  S
C694        C695   1.412       .  A
C695        C696   1.406       .  A
C695        O699   1.371       .  S
C696        H700   1.083       .  S
O697        H702   0.992       .  S
O699        H703   0.993       .  S
C705        C706   1.403       .  A
C705        C710   1.407       .  A
C705        H715   1.083       .  S
C706        C711   1.489       .  S
C706        C707   1.408       .  A
C707        C708   1.399       .  A
C707        O712   1.372       .  S
C708        C709   1.408       .  A
C708        H713   1.083       .  S
C709        C710   1.417       .  A
C710        O714   1.371       .  S
C711        C716   1.409       .  A
C711        C720   1.404       .  A
O712        H728   0.992       .  S
O714        H725   0.992       .  S
C716        C717   1.406       .  A
C716        O721   1.371       .  S
C717        C718   1.406       .  A
C717        H722   1.084       .  S
C718        C719   1.410       .  A
C719        C720   1.400       .  A
C719        O723   1.372       .  S
C720        H724   1.084       .  S
O721        H726   0.991       .  S
O723        H727   0.992       .  S
C729        C730   1.409       .  A
C729        C734   1.404       .  A
C729        H739   1.083       .  S
C730        C735   1.497   1_554  S
C730        C731   1.412       .  A
C731        C732   1.400       .  A
C731        O736   1.372   1_554  S
C732        C733   1.407       .  A
C732        H737   1.084       .  S
C733        C734   1.410       .  A
C734        O738   1.371       .  S
C735        C740   1.411       .  A
C735        C744   1.408       .  A
O736        H752   0.992       .  S
O738        H749   0.992       .  S
C740        C741   1.399       .  A
C740        O745   1.372   1_556  S
C741        C742   1.407       .  A
C741        H746   1.083       .  S
C742        C743   1.412       .  A
C743        C744   1.405       .  A
C743        O747   1.371       .  S
C744        H748   1.083       .  S
O745        H750   0.992       .  S
O747        H751   0.992       .  S
