geometry optimzed in LAMMPS
_audit_creation_date              2020-12-01 
_audit_creation_method            'lammps2cif' 
_symmetry_space_group_name_H-M    'P1' 
_symmetry_Int_Tables_number       1 
_symmetry_cell_setting            triclinic 
loop_ 
_symmetry_equiv_pos_as_xyz 
  x,y,z 
_cell_length_a                    40.25989228 
_cell_length_b                    39.6481648234975 
_cell_length_c                    43.04508698707733 
_cell_angle_alpha                 90.2966829908635 
_cell_angle_beta                  118.14648729615296 
_cell_angle_gamma                 89.7469413986005 
loop_ 
_atom_site_label 
_atom_site_type_symbol 
_atom_site_fract_x 
_atom_site_fract_y 
_atom_site_fract_z 
_atom_site_charge 
Fe1        Fe  0.10786189  0.21405206  0.22612345     1.65800
Fe2        Fe  0.12948578  0.14799725  0.19206172     1.73200
Fe3        Fe  0.04751018  0.18790180  0.14645642     1.54400
O4          O  0.02106278  0.20806865  0.17583407    -0.80500
O5          O  0.13050433  0.16421821  0.14811644    -0.78800
O6          O  0.06369137  0.19546231  0.22983957    -0.83000
O7          O  0.07509245  0.25398609  0.19187338    -0.77900
O8          O  0.03266022  0.14149455  0.15384281    -0.79700
O9          O  0.17721425  0.18001565  0.22085504    -0.82400
C10         C  0.05976328  0.25787769  0.15833548     0.98300
C11         C  0.03176218  0.20656784  0.20901339     1.05800
O12         O  0.09552484  0.18365230  0.18767663    -1.11400
O13         O  0.12711505  0.13011049  0.23535951    -0.73800
O14         O  0.13919972  0.17809046  0.26453460    -0.77300
O15         O  0.06172505  0.23489067  0.13885786    -0.78000
C16         C  0.13152966  0.14668054  0.26213205     0.97300
O17         O  0.15340037  0.23048798  0.22257435    -0.76000
O18         O  0.08454601  0.11385187  0.16199641    -0.81200
C19         C  0.10220686  0.16088672  0.11814986     0.99900
C20         C  0.04888895  0.11513626  0.15133804     1.05800
O21         O  0.06877045  0.16746026  0.11318675    -0.76800
C22         C  0.18041566  0.21232306  0.22487369     1.04100
Fe23       Fe  0.10568968  0.02953459  0.47431479     1.65800
Fe24       Fe  0.12660587  0.09583472  0.44076174     1.73200
Fe25       Fe  0.04539814  0.05507761  0.39427336     1.54400
O26         O  0.06055307  0.50820752  0.38727889    -0.80500
O27         O  0.08147015  0.12968091  0.41078492    -0.78800
O28         O  0.07369964  0.48987536  0.44031090    -0.83000
O29         O  0.06099224  0.04811161  0.47764029    -0.77900
O30         O  0.06696815  0.07521078  0.36128296    -0.79700
O31         O  0.12292737  0.11309839  0.48377608    -0.82400
C32         C  0.02921490  0.03682037  0.45658561     0.98300
C33         C  0.05887800  0.48544928  0.40690451     1.05800
O34         O  0.09319848  0.05973487  0.43575054    -1.11400
O35         O  0.17469457  0.06392611  0.46972379    -0.73800
O36         O  0.15162859  0.01313616  0.47122996    -0.77300
O37         O  0.01878124  0.03515827  0.42343581    -0.78000
C38         C  0.17856961  0.03168495  0.47431955     0.97300
O39         O  0.13702001  0.06539901  0.01293951    -0.76000
O40         O  0.12864515  0.08074211  0.39675997    -0.81200
C41         C  0.04576988  0.12817727  0.39958802     0.99900
C42         C  0.10028043  0.08276551  0.36662013     1.05800
O43         O  0.02943708  0.10158567  0.40093784    -0.76800
C44         C  0.12857402  0.09656661  0.01061390     1.04100
Fe45       Fe  0.39601034  0.27929942  0.26229235     1.65800
Fe46       Fe  0.37392645  0.34493857  0.29650624     1.73200
Fe47       Fe  0.45262687  0.30118303  0.34475706     1.54400
O48         O  0.43233357  0.25523597  0.34714002    -0.80500
O49         O  0.41980963  0.37724863  0.32840157    -0.78800
O50         O  0.42506300  0.23783118  0.29565272    -0.83000
O51         O  0.44314615  0.29729734  0.26377718    -0.77900
O52         O  0.42970762  0.32152938  0.37623993    -0.79700
O53         O  0.37960666  0.36329504  0.25508104    -0.82400
C54         C  0.47353427  0.28387780  0.28518946     0.98300
C55         C  0.43675058  0.23283113  0.32857861     1.05800
O56         O  0.40694769  0.30847135  0.30157190    -1.11400
O57         O  0.32553935  0.31424757  0.26511036    -0.73800
O58         O  0.34790864  0.26365978  0.26109864    -0.77300
O59         O  0.48161149  0.28073518  0.31767142    -0.78000
C60         C  0.32113734  0.28225730  0.25861802     0.97300
O61         O  0.36781864  0.31625701  0.22410136    -0.76000
O62         O  0.36906156  0.32919155  0.33888523    -0.81200
C63         C  0.45582371  0.37474103  0.34177770     0.99900
C64         C  0.39637397  0.33020738  0.36970306     1.05800
O65         O  0.47236120  0.34727291  0.34265696    -0.76800
C66         C  0.37481100  0.34772514  0.22769486     1.04100
Fe67       Fe  0.39494517  0.46559733  0.01304573     1.65800
Fe68       Fe  0.37375322  0.39950139  0.04679296     1.73200
Fe69       Fe  0.45416562  0.44091411  0.09399847     1.54400
O70         O  0.48185290  0.46127060  0.06596206    -0.80500
O71         O  0.37078875  0.41607824  0.08995946    -0.78800
O72         O  0.44090974  0.44814816  0.01131935    -0.83000
O73         O  0.42585808  0.00637703  0.04732682    -0.77900
O74         O  0.47173086  0.39437270  0.08908969    -0.79700
O75         O  0.32529620  0.43047043  0.01659853    -0.82400
C76         C  0.43999769  0.01037870  0.08072784     0.98300
C77         C  0.47232566  0.45975038  0.03300547     1.05800
O78         O  0.40721219  0.43539592  0.05159709    -1.11400
O79         O  0.37759251  0.38161227  0.50428741    -0.73800
O80         O  0.36552237  0.42919322  0.47444874    -0.77300
O81         O  0.43678537  0.48742099  0.09948228    -0.78000
C82         C  0.37254401  0.39763912  0.47714582     0.97300
O83         O  0.34768247  0.48131162  0.01435033    -0.76000
O84         O  0.41932987  0.36602403  0.07773378    -0.81200
C85         C  0.39845126  0.41410884  0.12047763     0.99900
C86         C  0.45526649  0.36756064  0.08987995     1.05800
O87         O  0.43201112  0.42089335  0.12624629    -0.76800
C88         C  0.32083310  0.46252263  0.01106808     1.04100
C89         C  0.35900171  0.39057303  0.41423922     0.24700
C90         C  0.37668067  0.37909040  0.44914037    -0.23400
C91         C  0.40092171  0.35075114  0.45785916     0.19600
C92         C  0.40736506  0.33447317  0.43221445     0.24700
C93         C  0.38919041  0.34573085  0.39728844    -0.23300
C94         C  0.36493128  0.37394884  0.38857433     0.19600
F95         F  0.34816443  0.38653001  0.35532724    -0.13300
F96         F  0.33613844  0.41806686  0.40489082    -0.15600
F97         F  0.43130825  0.30775005  0.44152737    -0.15600
F98         F  0.41976364  0.33957777  0.49158508    -0.13300
C99         C  0.35974749  0.37832351  0.13901175     0.24700
C100        C  0.39097458  0.40002553  0.14850113    -0.23400
C101        C  0.41569697  0.40538623  0.18441369     0.19600
C102        C  0.40960433  0.38911816  0.21013454     0.24700
C103        C  0.37913202  0.36667025  0.20038739    -0.23300
C104        C  0.35423933  0.36161759  0.16468582     0.19600
F105        F  0.32446339  0.34045667  0.15460026    -0.13300
F106        F  0.33519228  0.37188676  0.10469907    -0.15600
F107        F  0.43456078  0.39409212  0.24463104    -0.15600
F108        F  0.44587104  0.42608748  0.19465024    -0.13300
C109        C  0.27667457  0.01254552  0.98582057     0.24700
C110        C  0.28362317  0.47932210  0.00034772    -0.23400
C111        C  0.25603049  0.46464482  0.50676096     0.19600
C112        C  0.22243269  0.48182591  0.49883636     0.24700
C113        C  0.21526001  0.01438862  0.48400819    -0.23300
C114        C  0.24300322  0.02963596  0.97781489     0.19600
F115        F  0.23752059  0.06093007  0.96354116    -0.13300
F116        F  0.30226325  0.02840400  0.97888205    -0.15600
F117        F  0.19714711  0.46634194  0.50647512    -0.15600
F118        F  0.26182713  0.43368468  0.52179860    -0.13300
C119        C  0.49516403  0.98698578  0.46191274     0.24700
C120        C  0.00952767  0.01943982  0.47337919    -0.23400
C121        C  0.01581780  0.53059461  0.50714663     0.19600
C122        C  0.00718991  0.50964000  0.02838618     0.24700
C123        C  0.49284860  0.47712490  0.01699731    -0.23300
C124        C  0.48780260  0.96609530  0.98402962     0.19600
F125        F  0.47415602  0.93471903  0.97211936    -0.13300
F126        F  0.49023148  0.97501459  0.43044825    -0.15600
F127        F  0.01200361  0.52166365  0.05979434    -0.15600
F128        F  0.03024771  0.56170477  0.51937996    -0.13300
C129        C  0.51131530  0.40008589  0.39274910     0.24700
C130        C  0.48050410  0.40379652  0.35877869    -0.23400
C131        C  0.97621362  0.43398832  0.34060738     0.19600
C132        C  0.00258689  0.45988651  0.35575567     0.24700
C133        C  0.03372951  0.45626834  0.38983520    -0.23300
C134        C  0.03736745  0.42628374  0.40841433     0.19600
F135        F  0.06604526  0.42219777  0.44158712    -0.13300
F136        F  0.51591959  0.37115554  0.41113565    -0.15600
F137        F  0.99672319  0.48898846  0.33737695    -0.15600
F138        F  0.94700585  0.43793505  0.30769478    -0.13300
C139        C  0.51817598  0.18430143  0.40002203     0.24700
C140        C  0.02073343  0.15653696  0.38130258    -0.23400
C141        C  0.99408126  0.15256303  0.34557307     0.19600
C142        C  0.46549958  0.17636303  0.32855896     0.24700
C143        C  0.46287464  0.20458591  0.34714213    -0.23300
C144        C  0.48948025  0.20807509  0.38329516     0.19600
F145        F  0.48853455  0.23496374  0.40253976    -0.13300
F146        F  0.54272289  0.18790274  0.43481800    -0.15600
F147        F  0.44052976  0.17184952  0.29399816    -0.15600
F148        F  0.99544992  0.12506821  0.32725175    -0.13300
C149        C  0.09544244  0.08358168  0.30600966     0.24700
C150        C  0.10690087  0.09858426  0.33896427    -0.23400
C151        C  0.12730271  0.12905884  0.34696842     0.19200
C152        C  0.13617686  0.14426999  0.32257661     0.24700
C153        C  0.12522917  0.12922904  0.28955935    -0.23300
C154        C  0.10474712  0.09852397  0.28161366     0.19600
F155        F  0.09283781  0.08318371  0.24988091    -0.13300
F156        F  0.07603615  0.05412141  0.29772818    -0.15600
F157        F  0.15552635  0.17377224  0.33143910    -0.15600
F158        F  0.13816098  0.14456549  0.37850212    -0.13300
C159        C  0.14738537  0.10851908  0.07387945     0.24700
C160        C  0.12261372  0.11355326  0.03818206    -0.23400
C161        C  0.09064405  0.13426976  0.02847804     0.19600
C162        C  0.08374340  0.14990636  0.05416678     0.24700
C163        C  0.10910554  0.14566817  0.09004965    -0.23300
C164        C  0.14098701  0.12456490  0.09955806     0.19600
F165        F  0.16554404  0.11832953  0.13388410    -0.13300
F166        F  0.17803621  0.08828975  0.08394384    -0.15600
F167        F  0.05231720  0.16909776  0.04390397    -0.15600
F168        F  0.06475835  0.13754456  0.49395557    -0.13300
C169        C  0.49249384  0.09335333  0.09928535     0.24700
C170        C  0.02370715  0.08696251  0.13240577    -0.23400
C171        C  0.02650727  0.05602218  0.14877955     0.19600
C172        C  0.49895378  0.03151901  0.13216266     0.24700
C173        C  0.46720664  0.03787287  0.09902869    -0.23300
C174        C  0.46468641  0.06887157  0.08254226     0.19600
F175        F  0.43517969  0.07562077  0.05045925    -0.13300
F176        F  0.48882056  0.12353740  0.08316756    -0.15600
F177        F  0.00253935  0.00174079  0.14891533    -0.15600
F178        F  0.05572942  0.04976285  0.18115532    -0.13300
C179        C  0.97430537  0.30686655  0.09211809     0.24700
C180        C  0.48014044  0.33863570  0.10799043    -0.23400
C181        C  0.51221603  0.34387655  0.14096135     0.19600
C182        C  0.03862836  0.31804206  0.15724916     0.24700
C183        C  0.03362582  0.28648310  0.14079706    -0.23300
C184        C  0.00086617  0.28109798  0.10813935     0.19600
F185        F  0.99382630  0.25046883  0.09203701    -0.13300
F186        F  0.94352524  0.30102172  0.06060474    -0.15600
F187        F  0.06909047  0.32396505  0.18896935    -0.15600
F188        F  0.51797496  0.37423970  0.15744761    -0.13300
C189        C  0.27931408  0.23055042  0.23805680     0.24700
C190        C  0.28421488  0.26511316  0.24804150    -0.23400
C191        C  0.25419666  0.28203554  0.24933273     0.19600
C192        C  0.22086640  0.26491495  0.24192984     0.24700
C193        C  0.21636247  0.23013248  0.23291921    -0.23300
C194        C  0.24602440  0.21340376  0.23075676     0.19600
F195        F  0.24290159  0.18039545  0.22123581    -0.13300
F196        F  0.30674946  0.21288446  0.23521841    -0.15600
F197        F  0.19314468  0.28274336  0.24407899    -0.15600
F198        F  0.25709857  0.31516923  0.25832681    -0.13300
C199        C  0.01944375  0.21373589  0.26022144     0.24700
C200        C  0.01206610  0.22382338  0.22605000    -0.23400
C201        C  0.49585792  0.25555116  0.21376329     0.19600
C202        C  0.48746530  0.27674145  0.23509974     0.24700
C203        C  0.49393499  0.26634067  0.26890440    -0.23300
C204        C  0.01064255  0.23487962  0.28143886     0.19600
F205        F  0.01729694  0.22393200  0.31368778    -0.13300
F206        F  0.03606266  0.18351996  0.27343534    -0.15600
F207        F  0.47208868  0.30743165  0.22226160    -0.15600
F208        F  0.48984661  0.26687223  0.18182443    -0.13300
Fe209      Fe  0.10776379  0.21414676  0.72598063     1.65800
Fe210      Fe  0.12929366  0.14799536  0.69196890     1.73200
Fe211      Fe  0.04740209  0.18800163  0.64632771     1.54400
O212        O  0.02096624  0.20821941  0.67567442    -0.80500
O213        O  0.13037331  0.16415502  0.64803688    -0.78800
O214        O  0.06356926  0.19565875  0.72971388    -0.83000
O215        O  0.07506166  0.25408957  0.69171567    -0.77900
O216        O  0.03249851  0.14164036  0.65376982    -0.79700
O217        O  0.17708002  0.17995964  0.72076061    -0.82400
C218        C  0.05974798  0.25799966  0.65818084     0.98300
C219        C  0.03162936  0.20671425  0.70884491     1.05800
O220        O  0.09539515  0.18372165  0.68755180    -1.11400
O221        O  0.12681965  0.13018359  0.73523959    -0.73800
O222        O  0.13903380  0.17818072  0.76440840    -0.77300
O223        O  0.06165478  0.23498177  0.63869892    -0.78000
C224        C  0.13122319  0.14680302  0.76198028     0.97300
O225        O  0.15331166  0.23047354  0.72240159    -0.76000
O226        O  0.08430354  0.11389458  0.66189847    -0.81200
C227        C  0.10208403  0.16082506  0.61806633     0.99900
C228        C  0.04864639  0.11524493  0.65122826     1.05800
O229        O  0.06865366  0.16746663  0.61308552    -0.76800
C230        C  0.18030593  0.21227216  0.72471357     1.04100
Fe231      Fe  0.10560468  0.02973976  0.97429125     1.65800
Fe232      Fe  0.12652705  0.09597394  0.94069713     1.73200
Fe233      Fe  0.04521692  0.05536547  0.89433576     1.54400
O234        O  0.06039442  0.50805097  0.88715226    -0.80500
O235        O  0.08139971  0.12987416  0.91074127    -0.78800
O236        O  0.07351528  0.48960877  0.94013821    -0.83000
O237        O  0.06100452  0.04838556  0.97774221    -0.77900
O238        O  0.06670715  0.07552457  0.86126938    -0.79700
O239        O  0.12298683  0.11330145  0.98375524    -0.82400
C240        C  0.02921235  0.03708778  0.95674965     0.98300
C241        C  0.05866850  0.48526585  0.90672054     1.05800
O242        O  0.09307758  0.05994334  0.93574462    -1.11400
O243        O  0.17459336  0.06400528  0.96962492    -0.73800
O244        O  0.15143719  0.01326846  0.97105657    -0.77300
O245        O  0.01869529  0.03542971  0.92358240    -0.78000
C246        C  0.17841435  0.03174789  0.97412458     0.97300
O247        O  0.13700251  0.06520688  0.51297763    -0.76000
O248        O  0.12841885  0.08076963  0.89666463    -0.81200
C249        C  0.04571052  0.12842163  0.89965305     0.99900
C250        C  0.10003178  0.08298040  0.86656069     1.05800
O251        O  0.02940336  0.10187685  0.90116220    -0.76800
C252        C  0.12850777  0.09635982  0.51062938     1.04100
Fe253      Fe  0.39588773  0.27943455  0.76200627     1.65800
Fe254      Fe  0.37361078  0.34497923  0.79620190     1.73200
Fe255      Fe  0.45235914  0.30131999  0.84447342     1.54400
O256        O  0.43210322  0.25537354  0.84688491    -0.80500
O257        O  0.41944208  0.37732622  0.82810696    -0.78800
O258        O  0.42494512  0.23796636  0.79543255    -0.83000
O259        O  0.44304178  0.29758835  0.76366200    -0.77900
O260        O  0.42939873  0.32166394  0.87591831    -0.79700
O261        O  0.37928822  0.36339381  0.75481030    -0.82400
C262        C  0.47337135  0.28405686  0.78501162     0.98300
C263        C  0.43657056  0.23296542  0.82835666     1.05800
O264        O  0.40667745  0.30855305  0.80128129    -1.11400
O265        O  0.32531281  0.31421354  0.76479911    -0.73800
O266        O  0.34774363  0.26369255  0.76065348    -0.77300
O267        O  0.48142147  0.28086251  0.81747541    -0.78000
C268        C  0.32096438  0.28222784  0.75826141     0.97300
O269        O  0.36772468  0.31639517  0.72378472    -0.76000
O270        O  0.36873273  0.32922401  0.83857142    -0.81200
C271        C  0.45545257  0.37484120  0.84144060     0.99900
C272        C  0.39604794  0.33026954  0.86938639     1.05800
O273        O  0.47200401  0.34740051  0.84226645    -0.76800
C274        C  0.37458255  0.34788738  0.72742402     1.04100
Fe275      Fe  0.39498411  0.46577394  0.51296966     1.65800
Fe276      Fe  0.37374104  0.39979743  0.54681457     1.73200
Fe277      Fe  0.45405890  0.44129855  0.59402322     1.54400
O278        O  0.48183457  0.46147416  0.56596178    -0.80500
O279        O  0.37061988  0.41654852  0.58984881    -0.78800
O280        O  0.44095481  0.44823642  0.51132743    -0.83000
O281        O  0.42572871  0.00621141  0.54711354    -0.77900
O282        O  0.47177284  0.39471319  0.58943972    -0.79700
O283        O  0.32530066  0.43072733  0.51645084    -0.82400
C284        C  0.43994751  0.01020468  0.58052289     0.98300
C285        C  0.47236935  0.45984142  0.53301439     1.05800
O286        O  0.40720960  0.43565161  0.55157598    -1.11400
O287        O  0.37745455  0.38144903  0.00413945    -0.73800
O288        O  0.36548254  0.42909639  0.97441372    -0.77300
O289        O  0.43647087  0.48782458  0.59919262    -0.78000
C290        C  0.37239525  0.39752325  0.97701891     0.97300
O291        O  0.34772111  0.48155695  0.51422998    -0.76000
O292        O  0.41931367  0.36636548  0.57790970    -0.81200
C293        C  0.39820768  0.41465741  0.62041145     0.99900
C294        C  0.45526713  0.36789282  0.59014430     1.05800
O295        O  0.43179204  0.42143033  0.62624381    -0.76800
C296        C  0.32084904  0.46277981  0.51091336     1.04100
C297        C  0.35879783  0.39059469  0.91406492     0.24700
C298        C  0.37641694  0.37899934  0.94893073    -0.23400
C299        C  0.40052131  0.35056882  0.95754724     0.19600
C300        C  0.40693437  0.33434529  0.93186041     0.24700
C301        C  0.38885374  0.34573700  0.89698521    -0.23300
C302        C  0.36469099  0.37401502  0.88835132     0.19600
F303        F  0.34799764  0.38669445  0.85514478    -0.13300
F304        F  0.33603705  0.41815529  0.90480134    -0.15600
F305        F  0.43076052  0.30754056  0.94108195    -0.15600
F306        F  0.41926894  0.33924604  0.99122135    -0.13300
C307        C  0.35907713  0.37933750  0.63888443     0.24700
C308        C  0.39063299  0.40064672  0.64841511    -0.23400
C309        C  0.41565131  0.40555044  0.68434105     0.19600
C310        C  0.40960781  0.38912211  0.71000891     0.24700
C311        C  0.37888589  0.36696587  0.70019215    -0.23300
C312        C  0.35363243  0.36244670  0.66450320     0.19600
F313        F  0.32356112  0.34164020  0.65438197    -0.13300
F314        F  0.33410502  0.37345413  0.60456693    -0.15600
F315        F  0.43483651  0.39364326  0.74450439    -0.15600
F316        F  0.44608987  0.42593022  0.69464220    -0.13300
C317        C  0.27589899  0.01162407  0.48426544     0.24700
C318        C  0.28363601  0.47958898  0.50016485    -0.23400
C319        C  0.25616382  0.46451587  0.00724675     0.19600
C320        C  0.22254744  0.48169338  0.99928016     0.24700
C321        C  0.21508286  0.01436941  0.98370165    -0.23300
C322        C  0.24233042  0.02884918  0.47637132     0.19600
F323        F  0.23600772  0.05937043  0.46038515    -0.13300
F324        F  0.30068396  0.02655935  0.47560331    -0.15600
F325        F  0.19739793  0.46637367  0.00721556    -0.15600
F326        F  0.26213993  0.43371555  0.02263688    -0.13300
C327        C  0.49549048  0.98719862  0.96233383     0.24700
C328        C  0.00963448  0.01966836  0.97362622    -0.23400
C329        C  0.01517551  0.53066074  0.00674871     0.19600
C330        C  0.00780036  0.50952068  0.52872287     0.24700
C331        C  0.49295152  0.47711779  0.51698953    -0.23300
C332        C  0.48738192  0.96589250  0.48355947     0.19600
F333        F  0.47358080  0.93457380  0.47156550    -0.13300
F334        F  0.49061330  0.97518777  0.93090220    -0.15600
F335        F  0.01298019  0.52135281  0.56031697    -0.15600
F336        F  0.02927757  0.56190826  0.01875958    -0.13300
C337        C  0.51090800  0.40006274  0.89248412     0.24700
C338        C  0.48013314  0.40386011  0.85850965    -0.23400
C339        C  0.97580260  0.43408798  0.84032553     0.19600
C340        C  0.00223878  0.45992716  0.85554448     0.24700
C341        C  0.03343141  0.45616677  0.88957412    -0.23300
C342        C  0.03704817  0.42611844  0.90804353     0.19600
F343        F  0.06577616  0.42189941  0.94116695    -0.13300
F344        F  0.51543047  0.37109698  0.91079765    -0.15600
F345        F  0.99639730  0.48910623  0.83728973    -0.15600
F346        F  0.94656589  0.43814949  0.80744726    -0.13300
C347        C  0.51779433  0.18442749  0.90003948     0.24700
C348        C  0.02063842  0.15674200  0.88126844    -0.23400
C349        C  0.99382666  0.15258852  0.84560892     0.19600
C350        C  0.46556453  0.17658475  0.82843357     0.24700
C351        C  0.46268946  0.20472380  0.84698653    -0.23300
C352        C  0.48905329  0.20814362  0.88322312     0.19600
F353        F  0.48782090  0.23490222  0.90248181    -0.13300
F354        F  0.54210048  0.18796576  0.93490326    -0.15600
F355        F  0.44078469  0.17209245  0.79381756    -0.15600
F356        F  0.99503675  0.12492583  0.82742041    -0.13300
C357        C  0.09389480  0.08449178  0.80544963     0.24700
C358        C  0.10668419  0.09880928  0.83890642    -0.23400
C359        C  0.12818836  0.12868236  0.84727085     0.19200
C360        C  0.13693929  0.14388485  0.82279312     0.24700
C361        C  0.12476158  0.12943597  0.78933238    -0.23300
C362        C  0.10306579  0.09942385  0.78096087     0.19600
F363        F  0.08979303  0.08482825  0.74871002    -0.13300
F364        F  0.07327825  0.05570217  0.79673137    -0.15600
F365        F  0.15742690  0.17276427  0.83201330    -0.15600
F366        F  0.14022281  0.14365604  0.87923575    -0.13300
C367        C  0.14743068  0.10855798  0.57386385     0.24700
C368        C  0.12248912  0.11332552  0.53816613    -0.23400
C369        C  0.09033763  0.13379352  0.52843413     0.19600
C370        C  0.08343752  0.14948223  0.55409846     0.24700
C371        C  0.10897965  0.14554669  0.58998235    -0.23300
C372        C  0.14103092  0.12465480  0.59951695     0.19600
F373        F  0.16577369  0.11867705  0.63384978    -0.13300
F374        F  0.17825455  0.08855168  0.58394928    -0.15600
F375        F  0.05182478  0.16841361  0.54380763    -0.15600
F376        F  0.06522389  0.13831595  0.99399391    -0.13300
C377        C  0.49205785  0.09339414  0.59927192     0.24700
C378        C  0.02339272  0.08709568  0.63228525    -0.23400
C379        C  0.02707130  0.05571924  0.64814919     0.19600
C380        C  0.49907319  0.03126102  0.63178134     0.24700
C381        C  0.46714687  0.03769948  0.59879951    -0.23300
C382        C  0.46435403  0.06883939  0.58247744     0.19600
F383        F  0.43466014  0.07566584  0.55053415    -0.13300
F384        F  0.48811600  0.12371825  0.58333088    -0.15600
F385        F  0.00410150  0.00084677  0.64773691    -0.15600
F386        F  0.05695962  0.04917424  0.68004173    -0.13300
C387        C  0.97469864  0.30736748  0.59179706     0.24700
C388        C  0.48009353  0.33890246  0.60817621    -0.23400
C389        C  0.51228921  0.34405331  0.64108514     0.19600
C390        C  0.03838508  0.31803542  0.65750454     0.24700
C391        C  0.03371992  0.28670487  0.64067243    -0.23300
C392        C  0.00129154  0.28159568  0.60768832     0.19600
F393        F  0.99458180  0.25122558  0.59110680    -0.13300
F394        F  0.94425033  0.30179294  0.55997913    -0.15600
F395        F  0.06852916  0.32372318  0.68950231    -0.15600
F396        F  0.51825565  0.37441389  0.65760710    -0.13300
C397        C  0.27932520  0.23037312  0.73812044     0.24700
C398        C  0.28408800  0.26502820  0.74775346    -0.23400
C399        C  0.25395288  0.28203001  0.74874235     0.19600
C400        C  0.22063491  0.26491997  0.74137408     0.24700
C401        C  0.21624979  0.23005944  0.73270183    -0.23300
C402        C  0.24603459  0.21323460  0.73084527     0.19600
F403        F  0.24304383  0.18013492  0.72167291    -0.13300
F404        F  0.30690312  0.21260192  0.73563205    -0.15600
F405        F  0.19279674  0.28285407  0.74320386    -0.15600
F406        F  0.25671029  0.31525131  0.75737935    -0.13300
C407        C  0.01918428  0.21379743  0.75997583     0.24700
C408        C  0.01185058  0.22390638  0.72582429    -0.23400
C409        C  0.49532229  0.25528264  0.71346463     0.19600
C410        C  0.48687649  0.27656601  0.73468961     0.24700
C411        C  0.49367174  0.26643481  0.76867410    -0.23300
C412        C  0.01035978  0.23493195  0.78118101     0.19600
F413        F  0.01697255  0.22396963  0.81341353    -0.13300
F414        F  0.03579880  0.18357855  0.77318624    -0.15600
F415        F  0.47114837  0.30708233  0.72156527    -0.15600
F416        F  0.48896047  0.26634555  0.68133399    -0.13300
Fe417      Fe  0.10778495  0.71408850  0.22596883     1.65800
Fe418      Fe  0.12925625  0.64797937  0.19186181     1.73200
Fe419      Fe  0.04726326  0.68786273  0.14639628     1.54400
O420        O  0.02094882  0.70806677  0.17584972    -0.80500
O421        O  0.13014964  0.66420982  0.14787222    -0.78800
O422        O  0.06368582  0.69557058  0.22985389    -0.83000
O423        O  0.07497349  0.75400017  0.19171539    -0.77900
O424        O  0.03252459  0.64149866  0.15399929    -0.79700
O425        O  0.17704128  0.67997872  0.22058489    -0.82400
C426        C  0.05953202  0.75787924  0.15816796     0.98300
C427        C  0.03171127  0.70659564  0.20903955     1.05800
O428        O  0.09534350  0.68366159  0.18753312    -1.11400
O429        O  0.12694319  0.63012340  0.23519054    -0.73800
O430        O  0.13916631  0.67812614  0.26436733    -0.77300
O431        O  0.06134873  0.73485785  0.13864175    -0.78000
C432        C  0.13139801  0.64673753  0.26195079     0.97300
O433        O  0.15324921  0.73046739  0.22226354    -0.76000
O434        O  0.08427184  0.61383440  0.16185922    -0.81200
C435        C  0.10181361  0.66074937  0.11795526     0.99900
C436        C  0.04863815  0.61514174  0.15132285     1.05800
O437        O  0.06839345  0.66732583  0.11304363    -0.76800
C438        C  0.18025378  0.71229104  0.22456037     1.04100
Fe439      Fe  0.10579024  0.52982177  0.47440021     1.65800
Fe440      Fe  0.12666943  0.59606865  0.44079247     1.73200
Fe441      Fe  0.04549143  0.55528032  0.39434314     1.54400
O442        O  0.06043475  0.00801057  0.38718374    -0.80500
O443        O  0.08148638  0.62989406  0.41077257    -0.78800
O444        O  0.07358093  0.98961860  0.44019304    -0.83000
O445        O  0.06109941  0.54843530  0.47770173    -0.77900
O446        O  0.06705421  0.57544905  0.36132527    -0.79700
O447        O  0.12302041  0.61339418  0.48379728    -0.82400
C448        C  0.02935460  0.53705282  0.45669494     0.98300
C449        C  0.05873023  0.98524151  0.40677919     1.05800
O450        O  0.09328172  0.55997883  0.43581773    -1.11400
O451        O  0.17477801  0.56417167  0.46977699    -0.73800
O452        O  0.15169244  0.51340353  0.47128528    -0.77300
O453        O  0.01890518  0.53534555  0.42354124    -0.78000
C454        C  0.17863340  0.53192286  0.47433299     0.97300
O455        O  0.13697928  0.56512699  0.01298284    -0.76000
O456        O  0.12871161  0.58086755  0.39683716    -0.81200
C457        C  0.04578636  0.62836415  0.39960438     0.99900
C458        C  0.10038617  0.58299194  0.36668916     1.05800
O459        O  0.02950269  0.60176545  0.40101271    -0.76800
C460        C  0.12845319  0.59627152  0.01064680     1.04100
Fe461      Fe  0.39592235  0.77942795  0.26217798     1.65800
Fe462      Fe  0.37371065  0.84502111  0.29636771     1.73200
Fe463      Fe  0.45248239  0.80136867  0.34461890     1.54400
O464        O  0.43225737  0.75543065  0.34710153    -0.80500
O465        O  0.41956369  0.87737339  0.32825543    -0.78800
O466        O  0.42498223  0.73798175  0.29561240    -0.83000
O467        O  0.44306566  0.79749025  0.26372792    -0.77900
O468        O  0.42956040  0.82174360  0.37608478    -0.79700
O469        O  0.37935363  0.86340777  0.25494570    -0.82400
C470        C  0.47342608  0.78401785  0.28510865     0.98300
C471        C  0.43667986  0.73301825  0.32855142     1.05800
O472        O  0.40677491  0.80858688  0.30144037    -1.11400
O473        O  0.32537193  0.81426826  0.26497827    -0.73800
O474        O  0.34779704  0.76372961  0.26089544    -0.77300
O475        O  0.48149994  0.78087147  0.31758556    -0.78000
C476        C  0.32100545  0.78228203  0.25844069     0.97300
O477        O  0.36775010  0.81638223  0.22395462    -0.76000
O478        O  0.36887908  0.82927600  0.33876241    -0.81200
C479        C  0.45557430  0.87488839  0.34157209     0.99900
C480        C  0.39621287  0.83034685  0.36956639     1.05800
O481        O  0.47211375  0.84744755  0.34236745    -0.76800
C482        C  0.37462868  0.84787231  0.22756649     1.04100
Fe483      Fe  0.39510195  0.96584152  0.01316004     1.65800
Fe484      Fe  0.37383125  0.89976042  0.04683772     1.73200
Fe485      Fe  0.45416926  0.94124059  0.09417130     1.54400
O486        O  0.48196931  0.96153811  0.06619521    -0.80500
O487        O  0.37069917  0.91635779  0.08991820    -0.78800
O488        O  0.44110826  0.94838945  0.01152660    -0.83000
O489        O  0.42573216  0.50611216  0.04724024    -0.77900
O490        O  0.47184554  0.89469243  0.08943222    -0.79700
O491        O  0.32537445  0.93071095  0.01651375    -0.82400
C492        C  0.43995695  0.51008551  0.08065501     0.98300
C493        C  0.47251644  0.95997872  0.03325154     1.05800
O494        O  0.40730690  0.93565587  0.05170601    -1.11400
O495        O  0.37746131  0.88150991  0.50422937    -0.73800
O496        O  0.36535821  0.92913112  0.47445133    -0.77300
O497        O  0.43666516  0.98775151  0.09949803    -0.78000
C498        C  0.37237187  0.89757612  0.47709433     0.97300
O499        O  0.34781775  0.98155017  0.01442298    -0.76000
O500        O  0.41939863  0.86630503  0.07786110    -0.81200
C501        C  0.39829495  0.91446297  0.12048128     0.99900
C502        C  0.45534756  0.86785165  0.09008507     1.05800
O503        O  0.43187791  0.92126574  0.12632644    -0.76800
C504        C  0.32092091  0.96277381  0.01103894     1.04100
C505        C  0.35899003  0.89073894  0.41419762     0.24700
C506        C  0.37647651  0.87907829  0.44903985    -0.23400
C507        C  0.40054644  0.85062077  0.45767312     0.19600
C508        C  0.40701797  0.83441045  0.43201533     0.24700
C509        C  0.38903580  0.84584792  0.39715662    -0.23300
C510        C  0.36494690  0.87417681  0.38851571     0.19600
F511        F  0.34838164  0.88691219  0.35533334    -0.13300
F512        F  0.33629981  0.91834767  0.40492570    -0.15600
F513        F  0.43079168  0.80756728  0.44124540    -0.15600
F514        F  0.41919705  0.83925113  0.49133562    -0.13300
C515        C  0.35929091  0.87899370  0.13896798     0.24700
C516        C  0.39073069  0.90044340  0.14848511    -0.23400
C517        C  0.41562590  0.90553263  0.18440838     0.19600
C518        C  0.40955485  0.88917582  0.21009590     0.24700
C519        C  0.37893019  0.86690541  0.20030423    -0.23300
C520        C  0.35381283  0.86218376  0.16460919     0.19600
F521        F  0.32384429  0.84125322  0.15450251    -0.13300
F522        F  0.33447907  0.87289679  0.10465078    -0.15600
F523        F  0.43467063  0.89388221  0.24459382    -0.15600
F524        F  0.44596675  0.92603290  0.19468911    -0.13300
C525        C  0.27608355  0.51172044  0.98464875     0.24700
C526        C  0.28367662  0.97959582  0.00025646    -0.23400
C527        C  0.25628639  0.96472882  0.50752238     0.19600
C528        C  0.22269064  0.98192850  0.49957267     0.24700
C529        C  0.21528966  0.51457572  0.48392300    -0.23300
C530        C  0.24250158  0.52892478  0.97674805     0.19600
F531        F  0.23636010  0.55961478  0.96111752    -0.13300
F532        F  0.30103023  0.52685073  0.97632690    -0.15600
F533        F  0.19769962  0.96678725  0.50784015    -0.15600
F534        F  0.26242024  0.93407872  0.52323403    -0.13300
C535        C  0.49521380  0.48714679  0.46200013     0.24700
C536        C  0.00976359  0.51962359  0.47356022    -0.23400
C537        C  0.01547550  0.03045839  0.50691460     0.19600
C538        C  0.00763004  0.00964741  0.02878080     0.24700
C539        C  0.49311812  0.97729237  0.01727828    -0.23300
C540        C  0.48760269  0.46589543  0.98378442     0.19600
F541        F  0.47405405  0.43448348  0.97192434    -0.13300
F542        F  0.49018331  0.47522649  0.43048497    -0.15600
F543        F  0.01271135  0.02153614  0.06032241    -0.15600
F544        F  0.02982419  0.06160060  0.51910206    -0.13300
C545        C  0.51106313  0.90008189  0.39262168     0.24700
C546        C  0.48027414  0.90390168  0.35865662    -0.23400
C547        C  0.97586528  0.93399756  0.34046986     0.19600
C548        C  0.00228845  0.95985368  0.35565249     0.24700
C549        C  0.03350766  0.95612148  0.38966943    -0.23300
C550        C  0.03717216  0.92607738  0.40815895     0.19600
F551        F  0.06593939  0.92187915  0.44126628    -0.13300
F552        F  0.51556073  0.87111893  0.41093285    -0.15600
F553        F  0.99640847  0.98902259  0.33737490    -0.15600
F554        F  0.94660042  0.93803929  0.30760426    -0.13300
C555        C  0.51851984  0.68476004  0.39983808     0.24700
C556        C  0.02067496  0.65667603  0.38126852    -0.23400
C557        C  0.99386300  0.65254893  0.34560600     0.19600
C558        C  0.46501402  0.67630950  0.32869734     0.24700
C559        C  0.46284785  0.70482166  0.34714679    -0.23300
C560        C  0.48986871  0.70858258  0.38313679     0.19600
F561        F  0.48936942  0.73578479  0.40221940    -0.13300
F562        F  0.54347033  0.68862471  0.43449295    -0.15600
F563        F  0.43960871  0.67154227  0.29430672    -0.15600
F564        F  0.99509913  0.62492741  0.32737805    -0.13300
C565        C  0.09385822  0.58466045  0.30542358     0.24700
C566        C  0.10712355  0.59875003  0.33903994    -0.23400
C567        C  0.12905614  0.62837888  0.34750510     0.19200
C568        C  0.13772455  0.64356448  0.32296575     0.24700
C569        C  0.12503307  0.62934994  0.28934088    -0.23300
C570        C  0.10294910  0.59957447  0.28087297     0.19600
F571        F  0.08919198  0.58522801  0.24846155    -0.13300
F572        F  0.07282539  0.55611553  0.29659081    -0.15600
F573        F  0.15863968  0.67219722  0.33228197    -0.15600
F574        F  0.14156010  0.64316727  0.37961662    -0.13300
C575        C  0.14711594  0.60828348  0.07386299     0.24700
C576        C  0.12232886  0.61318713  0.03815010    -0.23400
C577        C  0.09021757  0.63372811  0.02836843     0.19600
C578        C  0.08324447  0.64940105  0.05399881     0.24700
C579        C  0.10867493  0.64537293  0.08989538    -0.23300
C580        C  0.14063910  0.62435616  0.09948040     0.19600
F581        F  0.16522274  0.61824880  0.13382843    -0.13300
F582        F  0.17787160  0.58817670  0.08400086    -0.15600
F583        F  0.05169422  0.66843066  0.04366633    -0.15600
F584        F  0.06508225  0.63807564  0.49413440    -0.13300
C585        C  0.49151256  0.59355742  0.09948386     0.24700
C586        C  0.02335368  0.58701518  0.13236364    -0.23400
C587        C  0.02716098  0.55556108  0.14811784     0.19600
C588        C  0.49928726  0.53112167  0.13165310     0.24700
C589        C  0.46707481  0.53763185  0.09890491    -0.23300
C590        C  0.46389464  0.56892329  0.08274144     0.19600
F591        F  0.43390932  0.57581120  0.05100441    -0.13300
F592        F  0.48721518  0.62400487  0.08367882    -0.15600
F593        F  0.00429584  0.50061522  0.14759567    -0.15600
F594        F  0.05719490  0.54892771  0.17988940    -0.13300
C595        C  0.97417514  0.80711802  0.09212164     0.24700
C596        C  0.48018915  0.83886933  0.10807543    -0.23400
C597        C  0.51226006  0.84398297  0.14107710     0.19600
C598        C  0.03855889  0.81807933  0.15725516     0.24700
C599        C  0.03346923  0.78655898  0.14070591    -0.23300
C600        C  0.00068086  0.78128660  0.10804341     0.19600
F601        F  0.99355391  0.75070611  0.09183877    -0.13300
F602        F  0.94336334  0.80137334  0.06060436    -0.15600
F603        F  0.06905059  0.82390361  0.18898197    -0.15600
F604        F  0.51805149  0.87427238  0.15770519    -0.13300
C605        C  0.27931492  0.73046276  0.23809275     0.24700
C606        C  0.28409609  0.76509160  0.24783617    -0.23400
C607        C  0.25394040  0.78206661  0.24881424     0.19600
C608        C  0.22059270  0.76494852  0.24134523     0.24700
C609        C  0.21620084  0.73010523  0.23258717    -0.23300
C610        C  0.24600005  0.71331596  0.23072362     0.19600
F611        F  0.24300130  0.68024240  0.22145545    -0.13300
F612        F  0.30689867  0.71272488  0.23558030    -0.15600
F613        F  0.19273490  0.78285370  0.24317092    -0.15600
F614        F  0.25670927  0.81526401  0.25754403    -0.13300
C615        C  0.01949313  0.71379977  0.26030723     0.24700
C616        C  0.01198589  0.72379187  0.22607207    -0.23400
C617        C  0.49567666  0.75561590  0.21364795     0.19600
C618        C  0.48726478  0.77680797  0.23496817     0.24700
C619        C  0.49377647  0.76643775  0.26879590    -0.23300
C620        C  0.01059985  0.73494526  0.28146013     0.19600
F621        F  0.01736384  0.72408341  0.31376958    -0.13300
F622        F  0.03632616  0.68368483  0.27364392    -0.15600
F623        F  0.47183351  0.80747220  0.22209008    -0.15600
F624        F  0.48961842  0.76690864  0.18168452    -0.13300
Fe625      Fe  0.10796873  0.71415616  0.72621182     1.65800
Fe626      Fe  0.12963831  0.64808991  0.69219561     1.73200
Fe627      Fe  0.04769724  0.68801982  0.64652640     1.54400
O628        O  0.02118758  0.70818020  0.67583650    -0.80500
O629        O  0.13073701  0.66430443  0.64828523    -0.78800
O630        O  0.06376196  0.69556686  0.72986122    -0.83000
O631        O  0.07522297  0.75409605  0.69194316    -0.77900
O632        O  0.03283245  0.64161830  0.65390990    -0.79700
O633        O  0.17736170  0.68009669  0.72102980    -0.82400
C634        C  0.05992368  0.75799801  0.65840665     0.98300
C635        C  0.03184071  0.70666555  0.70900335     1.05800
O636        O  0.09567935  0.68376126  0.68777379    -1.11400
O637        O  0.12718926  0.63021168  0.73545762    -0.73800
O638        O  0.13926001  0.67818897  0.76463756    -0.77300
O639        O  0.06193434  0.73501382  0.63895007    -0.78000
C640        C  0.13157377  0.64678175  0.76222058     0.97300
O641        O  0.15354592  0.73057714  0.72271973    -0.76000
O642        O  0.08470424  0.61395246  0.66208218    -0.81200
C643        C  0.10246076  0.66101728  0.61829788     0.99900
C644        C  0.04903974  0.61525513  0.65138380     1.05800
O645        O  0.06901658  0.66758584  0.61331245    -0.76800
C646        C  0.18056133  0.71240591  0.72502651     1.04100
Fe647      Fe  0.10565294  0.52948467  0.97430014     1.65800
Fe648      Fe  0.12663547  0.59579860  0.94081348     1.73200
Fe649      Fe  0.04539327  0.55511573  0.89428253     1.54400
O650        O  0.06012334  0.00828896  0.88711797    -0.80500
O651        O  0.08153295  0.62968133  0.91083252    -0.78800
O652        O  0.07340406  0.98985905  0.94015559    -0.83000
O653        O  0.06096728  0.54807122  0.97764779    -0.77900
O654        O  0.06699192  0.57525194  0.86131990    -0.79700
O655        O  0.12292951  0.61303966  0.98382565    -0.82400
C656        C  0.02916883  0.53684043  0.95656476     0.98300
C657        C  0.05851267  0.98548986  0.90673491     1.05800
O658        O  0.09319353  0.55971758  0.93576515    -1.11400
O659        O  0.17469960  0.56385346  0.96977897    -0.73800
O660        O  0.15159106  0.51306871  0.97121067    -0.77300
O661        O  0.01874746  0.53519469  0.92341706    -0.78000
C662        C  0.17855678  0.53160632  0.97434049     0.97300
O663        O  0.13711473  0.56552133  0.51303739    -0.76000
O664        O  0.12867672  0.58072399  0.89680283    -0.81200
C665        C  0.04583021  0.62820851  0.89963317     0.99900
C666        C  0.10031141  0.58278315  0.86666336     1.05800
O667        O  0.02947520  0.60163330  0.90098774    -0.76800
C668        C  0.12865733  0.59668506  0.51068361     1.04100
Fe669      Fe  0.39608946  0.77952357  0.76221908     1.65800
Fe670      Fe  0.37393238  0.84507360  0.79649719     1.73200
Fe671      Fe  0.45271009  0.80140507  0.84467035     1.54400
O672        O  0.43249851  0.75542860  0.84707983    -0.80500
O673        O  0.41976790  0.87741013  0.82838358    -0.78800
O674        O  0.42520261  0.73805169  0.79557550    -0.83000
O675        O  0.44319731  0.79761742  0.76371026    -0.77900
O676        O  0.42981511  0.82171229  0.87619176    -0.79700
O677        O  0.37955633  0.86350297  0.75507460    -0.82400
C678        C  0.47357970  0.78416422  0.78507723     0.98300
C679        C  0.43689486  0.73302607  0.82850205     1.05800
O680        O  0.40699295  0.80865503  0.80151562    -1.11400
O681        O  0.32559470  0.81434802  0.76511219    -0.73800
O682        O  0.34800310  0.76380463  0.76101884    -0.77300
O683        O  0.48168369  0.78100473  0.81756237    -0.78000
C684        C  0.32122829  0.78236068  0.75860481     0.97300
O685        O  0.36784603  0.81649300  0.72405291    -0.76000
O686        O  0.36913603  0.82926129  0.83889200    -0.81200
C687        C  0.45577556  0.87494443  0.84170037     0.99900
C688        C  0.39647784  0.83033692  0.86969142     1.05800
O689        O  0.47234510  0.84751576  0.84251460    -0.76800
C690        C  0.37478267  0.84797053  0.72767783     1.04100
Fe691      Fe  0.39487565  0.96567154  0.51299885     1.65800
Fe692      Fe  0.37373374  0.89962499  0.54684457     1.73200
Fe693      Fe  0.45411822  0.94106113  0.59397005     1.54400
O694        O  0.48178581  0.96129827  0.56585255    -0.80500
O695        O  0.37074504  0.91632099  0.58995775    -0.78800
O696        O  0.44079241  0.94818715  0.51121294    -0.83000
O697        O  0.42579420  0.50635806  0.54704532    -0.77900
O698        O  0.47172512  0.89448933  0.58920283    -0.79700
O699        O  0.32527526  0.93056122  0.51658792    -0.82400
C700        C  0.43989066  0.51041119  0.58043652     0.98300
C701        C  0.47224022  0.95974188  0.53288803     1.05800
O702        O  0.40718393  0.93549565  0.55158276    -1.11400
O703        O  0.37771110  0.88168829  0.00428623    -0.73800
O704        O  0.36569744  0.92931746  0.97453599    -0.77300
O705        O  0.43667547  0.98758060  0.59932719    -0.78000
C706        C  0.37270092  0.89776016  0.97718256     0.97300
O707        O  0.34765136  0.98141748  0.51436110    -0.76000
O708        O  0.41931489  0.86616583  0.57785701    -0.81200
C709        C  0.39838560  0.91440532  0.62048991     0.99900
C710        C  0.45525625  0.86768736  0.59001592     1.05800
O711        O  0.43195494  0.92114973  0.62625783    -0.76800
C712        C  0.32080345  0.96261137  0.51105357     1.04100
C713        C  0.35913168  0.89070754  0.91425707     0.24700
C714        C  0.37685826  0.87924650  0.94916608    -0.23400
C715        C  0.40113951  0.85093604  0.95788146     0.19600
C716        C  0.40756197  0.83465501  0.93222599     0.24700
C717        C  0.38932463  0.84587700  0.89728940    -0.23300
C718        C  0.36503823  0.87407598  0.88857861     0.19600
F719        F  0.34821607  0.88662652  0.85531871    -0.13300
F720        F  0.33623201  0.91817605  0.90491237    -0.15600
F721        F  0.43154188  0.80795888  0.94153765    -0.15600
F722        F  0.42003440  0.83979049  0.99161376    -0.13300
C723        C  0.35941167  0.87900295  0.63905266     0.24700
C724        C  0.39087001  0.90041851  0.64853255    -0.23400
C725        C  0.41580502  0.90551093  0.68444560     0.19600
C726        C  0.40974106  0.88919891  0.71016050     0.24700
C727        C  0.37908162  0.86697707  0.70040270    -0.23300
C728        C  0.35393895  0.86224181  0.66471772     0.19600
F729        F  0.32395493  0.84133587  0.65464261    -0.13300
F730        F  0.33457386  0.87288750  0.60474657    -0.15600
F731        F  0.43489815  0.89389106  0.74464802    -0.15600
F732        F  0.44617321  0.92596945  0.69468804    -0.13300
C733        C  0.27622433  0.51211271  0.48474353     0.24700
C734        C  0.28358389  0.97938099  0.50029670    -0.23400
C735        C  0.25552961  0.96414114  0.00570126     0.19600
C736        C  0.22181505  0.98120202  0.99761393     0.24700
C737        C  0.21525350  0.51429619  0.98403185    -0.23300
C738        C  0.24265535  0.52932234  0.47688113     0.19600
F739        F  0.23665774  0.56014867  0.46154405    -0.13300
F740        F  0.30128921  0.52737457  0.47666727    -0.15600
F741        F  0.19599974  0.96513896  0.00409242    -0.15600
F742        F  0.26084611  0.93273600  0.01970819    -0.13300
C743        C  0.49528640  0.48699483  0.96208410     0.24700
C744        C  0.00943747  0.51949278  0.97332758    -0.23400
C745        C  0.01559279  0.03071449  0.00715855     0.19600
C746        C  0.00744306  0.00939585  0.52848802     0.24700
C747        C  0.49279435  0.97703968  0.51685775    -0.23300
C748        C  0.48744222  0.46603069  0.48363808     0.19600
F749        F  0.47354648  0.43475104  0.47157822    -0.13300
F750        F  0.49051001  0.47494900  0.93069822    -0.15600
F751        F  0.01249937  0.02127679  0.56002600    -0.15600
F752        F  0.02987455  0.06188792  0.01928846    -0.13300
C753        C  0.51103468  0.90031437  0.89282042     0.24700
C754        C  0.48041705  0.90398873  0.85874146    -0.23400
C755        C  0.97590342  0.93399993  0.84040649     0.19600
C756        C  0.00223361  0.95992517  0.85557770     0.24700
C757        C  0.03339777  0.95629741  0.88964445    -0.23300
C758        C  0.03710856  0.92627308  0.90818292     0.19600
F759        F  0.06581885  0.92216806  0.94133535    -0.13300
F760        F  0.51541813  0.87145204  0.91125103    -0.15600
F761        F  0.99630995  0.98905656  0.83723300    -0.15600
F762        F  0.94667647  0.93795379  0.80750500    -0.13300
C763        C  0.51783344  0.68418462  0.90015352     0.24700
C764        C  0.02081431  0.65657510  0.88132251    -0.23400
C765        C  0.99437163  0.65267992  0.84551924     0.19600
C766        C  0.46596500  0.67672286  0.82839995     0.24700
C767        C  0.46295266  0.70472039  0.84705879    -0.23300
C768        C  0.48914899  0.70795222  0.88336285     0.19600
F769        F  0.48780898  0.73457428  0.90272484    -0.13300
F770        F  0.54197997  0.68754480  0.93507626    -0.15600
F771        F  0.44139183  0.67242791  0.79369842    -0.15600
F772        F  0.99598544  0.62530241  0.82717465    -0.13300
C773        C  0.09540280  0.58368127  0.80602525     0.24700
C774        C  0.10693411  0.59862550  0.83901906    -0.23400
C775        C  0.12736739  0.62908317  0.84705470     0.19200
C776        C  0.13622690  0.64432273  0.82266634     0.24700
C777        C  0.12523278  0.62932587  0.78962099    -0.23300
C778        C  0.10468831  0.59865299  0.78162960     0.19600
F779        F  0.09269186  0.58337872  0.74985029    -0.13300
F780        F  0.07593824  0.55425167  0.79770159    -0.15600
F781        F  0.15560792  0.67380799  0.83155932    -0.15600
F782        F  0.13826565  0.64454884  0.87861503    -0.13300
C783        C  0.14774040  0.60888981  0.57394946     0.24700
C784        C  0.12275968  0.61369892  0.53826632    -0.23400
C785        C  0.09067274  0.63423873  0.52859750     0.19600
C786        C  0.08383517  0.64990031  0.55430949     0.24700
C787        C  0.10937476  0.64586386  0.59017901    -0.23300
C788        C  0.14140624  0.62496581  0.59965102     0.19600
F789        F  0.16618030  0.61894872  0.63396669    -0.13300
F790        F  0.17852798  0.58884815  0.58397328    -0.15600
F791        F  0.05227752  0.66889774  0.54407999    -0.15600
F792        F  0.06475299  0.63757816  0.99386970    -0.13300
C793        C  0.49294557  0.59310471  0.59884578     0.24700
C794        C  0.02383403  0.58709974  0.63239855    -0.23400
C795        C  0.02706561  0.55591265  0.64847747     0.19600
C796        C  0.49842082  0.53175804  0.63225045     0.24700
C797        C  0.46710922  0.53791149  0.59876572    -0.23300
C798        C  0.46508365  0.56867518  0.58203847     0.19600
F799        F  0.43601696  0.57524891  0.54964576    -0.13300
F800        F  0.48973803  0.62307904  0.58250131    -0.15600
F801        F  0.00356169  0.50132817  0.64827214    -0.15600
F802        F  0.05662388  0.54946798  0.68060465    -0.13300
C803        C  0.97463676  0.80705614  0.59195272     0.24700
C804        C  0.48012196  0.83874317  0.60812693    -0.23400
C805        C  0.51234085  0.84399803  0.64099730     0.19600
C806        C  0.03840669  0.81800941  0.65753858     0.24700
C807        C  0.03377026  0.78660890  0.64084911    -0.23300
C808        C  0.00128434  0.78134383  0.60794304     0.19600
F809        F  0.99458272  0.75088129  0.59153919    -0.13300
F810        F  0.94413996  0.80133667  0.56020515    -0.15600
F811        F  0.06858564  0.82382821  0.68947889    -0.15600
F812        F  0.51828917  0.87441600  0.65740855    -0.13300
C813        C  0.27950604  0.73057549  0.73829324     0.24700
C814        C  0.28433799  0.76518486  0.74809516    -0.23400
C815        C  0.25426745  0.78214706  0.74925092     0.19600
C816        C  0.22094866  0.76502994  0.74188442     0.24700
C817        C  0.21650438  0.73020854  0.73304523    -0.23300
C818        C  0.24622271  0.71343241  0.73102421     0.19600
F819        F  0.24316594  0.68037761  0.72167881    -0.13300
F820        F  0.30700397  0.71285829  0.73561314    -0.15600
F821        F  0.19317227  0.78290848  0.74388394    -0.15600
F822        F  0.25709560  0.81532774  0.75805684    -0.13300
C823        C  0.01940140  0.71377437  0.76013016     0.24700
C824        C  0.01210116  0.72390530  0.72599588    -0.23400
C825        C  0.49558528  0.75545170  0.71354312     0.19600
C826        C  0.48718201  0.77674390  0.73479961     0.24700
C827        C  0.49391103  0.76657075  0.76875069    -0.23300
C828        C  0.01060505  0.73491102  0.78135046     0.19600
F829        F  0.01720783  0.72393781  0.81357503    -0.13300
F830        F  0.03594426  0.68352373  0.77330526    -0.15600
F831        F  0.47155514  0.80730728  0.72174295    -0.15600
F832        F  0.48930052  0.76655482  0.68145006    -0.13300
Fe833      Fe  0.60795546  0.21413772  0.22616482     1.65800
Fe834      Fe  0.62959715  0.14805897  0.19213543     1.73200
Fe835      Fe  0.54764312  0.18796570  0.14650911     1.54400
O836        O  0.52116831  0.20815570  0.17584260    -0.80500
O837        O  0.63063930  0.16426586  0.14819799    -0.78800
O838        O  0.56376798  0.19557885  0.22987370    -0.83000
O839        O  0.57519959  0.25405851  0.19188055    -0.77900
O840        O  0.53279632  0.14158267  0.15394884    -0.79700
O841        O  0.67733044  0.18007858  0.22093419    -0.82400
C842        C  0.55989486  0.25793629  0.15834099     0.98300
C843        C  0.53183006  0.20664425  0.20901232     1.05800
O844        O  0.59564057  0.18372213  0.18773715    -1.11400
O845        O  0.62720079  0.13019181  0.23542156    -0.73800
O846        O  0.63926488  0.17817884  0.26459692    -0.77300
O847        O  0.56188699  0.23493580  0.13889295    -0.78000
C848        C  0.63159313  0.14676830  0.26218328     0.97300
O849        O  0.65350958  0.23055393  0.22263288    -0.76000
O850        O  0.58464558  0.11391050  0.16206517    -0.81200
C851        C  0.60234713  0.16093227  0.11822960     0.99900
C852        C  0.54898803  0.11521411  0.15141246     1.05800
O853        O  0.56890921  0.16749309  0.11326452    -0.76800
C854        C  0.68053118  0.21238709  0.22495133     1.04100
Fe855      Fe  0.60572914  0.02954625  0.47435726     1.65800
Fe856      Fe  0.62666063  0.09584917  0.44082710     1.73200
Fe857      Fe  0.54549873  0.05504468  0.39427907     1.54400
O858        O  0.56039529  0.50817110  0.38714009    -0.80500
O859        O  0.58151040  0.12967690  0.41080725    -0.78800
O860        O  0.57358859  0.48981518  0.44018212    -0.83000
O861        O  0.56099505  0.04812845  0.47760911    -0.77900
O862        O  0.56711550  0.07519764  0.36132547    -0.79700
O863        O  0.62291339  0.11311498  0.48380878    -0.82400
C864        C  0.52923792  0.03680432  0.45654899     0.98300
C865        C  0.55874516  0.48540246  0.40677009     1.05800
O866        O  0.59326732  0.05973156  0.43578828    -1.11400
O867        O  0.67475893  0.06395464  0.46982800    -0.73800
O868        O  0.65170723  0.01315593  0.47133966    -0.77300
O869        O  0.51883712  0.03511677  0.42340589    -0.78000
C870        C  0.67864447  0.03171375  0.47443459     0.97300
O871        O  0.63713168  0.06547784  0.01300599    -0.76000
O872        O  0.62877069  0.08075045  0.39686289    -0.81200
C873        C  0.54580294  0.12814574  0.39957096     0.99900
C874        C  0.60043676  0.08278357  0.36670488     1.05800
O875        O  0.52948348  0.10153908  0.40090237    -0.76800
C876        C  0.62866526  0.09663882  0.01066830     1.04100
Fe877      Fe  0.89609369  0.27944205  0.26234856     1.65800
Fe878      Fe  0.87401155  0.34504540  0.29660113     1.73200
Fe879      Fe  0.95273219  0.30130691  0.34480947     1.54400
O880        O  0.93244687  0.25535787  0.34719272    -0.80500
O881        O  0.91989052  0.37735251  0.32850358    -0.78800
O882        O  0.92515766  0.23796750  0.29569440    -0.83000
O883        O  0.94321924  0.29746631  0.26382850    -0.77900
O884        O  0.92983279  0.32164386  0.37631659    -0.79700
O885        O  0.87966666  0.36343837  0.25517213    -0.82400
C886        C  0.97359761  0.28401247  0.28520932     0.98300
C887        C  0.93684227  0.23295367  0.32861833     1.05800
O888        O  0.90703909  0.30859588  0.30163867    -1.11400
O889        O  0.82562768  0.31435342  0.26520367    -0.73800
O890        O  0.84800556  0.26377854  0.26116700    -0.77300
O891        O  0.98169654  0.28086592  0.31769717    -0.78000
C892        C  0.82123346  0.28236437  0.25870392     0.97300
O893        O  0.86787829  0.31640867  0.22417629    -0.76000
O894        O  0.86917614  0.32925125  0.33898072    -0.81200
C895        C  0.95590252  0.37485551  0.34185855     0.99900
C896        C  0.89649538  0.33029592  0.36979298     1.05800
O897        O  0.97244753  0.34740103  0.34270493    -0.76800
C898        C  0.87485507  0.34787938  0.22777478     1.04100
Fe899      Fe  0.89489899  0.46564402  0.01303889     1.65800
Fe900      Fe  0.87373429  0.39951701  0.04677102     1.73200
Fe901      Fe  0.95412931  0.44094392  0.09397125     1.54400
O902        O  0.98180893  0.46130573  0.06592147    -0.80500
O903        O  0.87075283  0.41607716  0.08993644    -0.78800
O904        O  0.94084836  0.44822929  0.01126484    -0.83000
O905        O  0.92575249  0.00635548  0.04718413    -0.77900
O906        O  0.97170604  0.39440578  0.08906301    -0.79700
O907        O  0.82526720  0.43047268  0.01656362    -0.82400
C908        C  0.93981792  0.01038619  0.08057526     0.98300
C909        C  0.97227780  0.45979961  0.03296123     1.05800
O910        O  0.90718426  0.43542108  0.05157715    -1.11400
O911        O  0.87768280  0.38167478  0.50435952    -0.73800
O912        O  0.86560596  0.42926826  0.47453747    -0.77300
O913        O  0.93672177  0.48743728  0.09945237    -0.78000
C914        C  0.87263939  0.39771554  0.47722809     0.97300
O915        O  0.84765585  0.48133080  0.01438982    -0.76000
O916        O  0.91931919  0.36604886  0.07772441    -0.81200
C917        C  0.89841358  0.41415178  0.12046129     0.99900
C918        C  0.95525700  0.36759137  0.08987581     1.05800
O919        O  0.93197334  0.42092883  0.12622159    -0.76800
C920        C  0.82079868  0.46252790  0.01105981     1.04100
C921        C  0.85895702  0.39054634  0.41429604     0.24700
C922        C  0.87680395  0.37917995  0.44923475    -0.23400
C923        C  0.90121367  0.35096219  0.45799645     0.19600
C924        C  0.90765315  0.33468050  0.43235185     0.24700
C925        C  0.88930885  0.34581387  0.39738310    -0.23300
C926        C  0.86488419  0.37391855  0.38863061     0.19600
F927        F  0.84794366  0.38639262  0.35533968    -0.13300
F928        F  0.83592118  0.41792319  0.40491092    -0.15600
F929        F  0.93176294  0.30807885  0.44170931    -0.15600
F930        F  0.92022129  0.33992234  0.49176093    -0.13300
C931        C  0.85962908  0.37854629  0.13906653     0.24700
C932        C  0.89093632  0.40014024  0.14851630    -0.23400
C933        C  0.91574234  0.40544369  0.18442226     0.19600
C934        C  0.90967221  0.38920064  0.21016918     0.24700
C935        C  0.87913821  0.36683489  0.20045452    -0.23300
C936        C  0.85414529  0.36186190  0.16476567     0.19600
F937        F  0.82429820  0.34079345  0.15471772    -0.13300
F938        F  0.83496568  0.37218723  0.10476609    -0.15600
F939        F  0.93471050  0.39410721  0.24465413    -0.15600
F940        F  0.94598456  0.42605415  0.19462792    -0.13300
C941        C  0.77634535  0.01224853  0.98505262     0.24700
C942        C  0.78357421  0.47931518  0.00030241    -0.23400
C943        C  0.75585722  0.46444494  0.50633264     0.19600
C944        C  0.72219572  0.48155574  0.49832600     0.24700
C945        C  0.71533913  0.01442318  0.48413073    -0.23300
C946        C  0.74274693  0.02942392  0.97714850     0.19600
F947        F  0.73693642  0.06041770  0.96218267    -0.13300
F948        F  0.80159374  0.02771664  0.97736496    -0.15600
F949        F  0.69667356  0.46579467  0.50544203    -0.15600
F950        F  0.76144783  0.43328246  0.52091320    -0.13300
C951        C  0.99513692  0.98700409  0.46192992     0.24700
C952        C  0.50954790  0.01942703  0.47334423    -0.23400
C953        C  0.51577094  0.53051059  0.50708873     0.19600
C954        C  0.50724713  0.50960169  0.02846421     0.24700
C955        C  0.99282536  0.47714726  0.01695971    -0.23300
C956        C  0.98769865  0.96606694  0.98395689     0.19600
F957        F  0.97403497  0.93469908  0.97202874    -0.13300
F958        F  0.99019353  0.97505172  0.43045513    -0.15600
F959        F  0.51209932  0.52158727  0.05989857    -0.15600
F960        F  0.53023940  0.56160621  0.51934032    -0.13300
C961        C  0.01128644  0.40021593  0.39290573     0.24700
C962        C  0.98057283  0.40390353  0.35887855    -0.23400
C963        C  0.47602369  0.43393430  0.34055483     0.19600
C964        C  0.50237100  0.45985768  0.35568832     0.24700
C965        C  0.53360743  0.45621247  0.38970678    -0.23300
C966        C  0.53736773  0.42617783  0.40824324     0.19600
F967        F  0.56614659  0.42206220  0.44135909    -0.13300
F968        F  0.01576947  0.37132953  0.41132684    -0.15600
F969        F  0.49639226  0.48900916  0.33736520    -0.15600
F970        F  0.44671887  0.43791395  0.30770121    -0.13300
C971        C  0.01810595  0.18429372  0.40008820     0.24700
C972        C  0.52073978  0.15648880  0.38126816    -0.23400
C973        C  0.49400473  0.15244756  0.34557230     0.19600
C974        C  0.96560518  0.17650217  0.32855430     0.24700
C975        C  0.96292326  0.20467710  0.34716730    -0.23300
C976        C  0.98943718  0.20808792  0.38335738     0.19600
F977        F  0.98842828  0.23491750  0.40264060    -0.13300
F978        F  0.04256718  0.18782196  0.43491503    -0.15600
F979        F  0.94071614  0.17205450  0.29396056    -0.15600
F980        F  0.49532459  0.12491127  0.32727821    -0.13300
C981        C  0.59512706  0.08388069  0.30590732     0.24700
C982        C  0.60710588  0.09860678  0.33906938    -0.23400
C983        C  0.62792503  0.12886105  0.34722504     0.19200
C984        C  0.63672044  0.14410063  0.32279422     0.24700
C985        C  0.62527726  0.12930888  0.28958834    -0.23300
C986        C  0.60435083  0.09885032  0.28147034     0.19600
F987        F  0.59189838  0.08381151  0.24952019    -0.13300
F988        F  0.57526724  0.05466494  0.29744490    -0.15600
F989        F  0.65649126  0.17337802  0.33180267    -0.15600
F990        F  0.63924328  0.14415233  0.37893606    -0.13300
C991        C  0.64759117  0.10869331  0.07393197     0.24700
C992        C  0.62272051  0.11361976  0.03824115    -0.23400
C993        C  0.59067424  0.13422323  0.02855050     0.19600
C994        C  0.58379364  0.14986319  0.05424703     0.24700
C995        C  0.60924779  0.14573444  0.09012364    -0.23300
C996        C  0.64120946  0.12473973  0.09961898     0.19600
F997        F  0.66586503  0.11860656  0.13394141    -0.13300
F998        F  0.67831780  0.08856653  0.08397925    -0.15600
F999        F  0.55228864  0.16894023  0.04399687    -0.15600
F1000       F  0.56478480  0.13766792  0.49396195    -0.13300
C1001       C  0.99281104  0.09310019  0.09895818     0.24700
C1002       C  0.52376093  0.08705764  0.13246639    -0.23400
C1003       C  0.52702586  0.05587130  0.14855790     0.19600
C1004       C  0.99837260  0.03173311  0.13235807     0.24700
C1005       C  0.96700665  0.03790127  0.09891365    -0.23300
C1006       C  0.96492953  0.06867969  0.08219318     0.19600
F1007       F  0.93580666  0.07526579  0.04983536    -0.13300
F1008       F  0.98956302  0.12307993  0.08261063    -0.15600
F1009       F  0.50353747  0.00128891  0.14840431    -0.15600
F1010       F  0.55664475  0.04941767  0.18064473    -0.13300
C1011       C  0.47457864  0.30695484  0.09191266     0.24700
C1012       C  0.98014168  0.33866673  0.10800117    -0.23400
C1013       C  0.01242227  0.34397341  0.14081514     0.19600
C1014       C  0.53848528  0.31798807  0.15738326     0.24700
C1015       C  0.53375243  0.28653928  0.14076959    -0.23300
C1016       C  0.50120105  0.28123097  0.10792542     0.19600
F1017       F  0.49441289  0.25071692  0.09161348    -0.13300
F1018       F  0.44401239  0.30119429  0.06022391    -0.15600
F1019       F  0.56873446  0.32384394  0.18926693    -0.15600
F1020       F  0.01844146  0.37443866  0.15714657    -0.13300
C1021       C  0.77941071  0.23065866  0.23810128     0.24700
C1022       C  0.78431988  0.26520797  0.24813709    -0.23400
C1023       C  0.75432152  0.28210289  0.24949139     0.19600
C1024       C  0.72099843  0.26496987  0.24208852     0.24700
C1025       C  0.71648138  0.23020153  0.23301548    -0.23300
C1026       C  0.74612697  0.21349923  0.23080000     0.19600
F1027       F  0.74298933  0.18050790  0.22121782    -0.13300
F1028       F  0.80683117  0.21302018  0.23521006    -0.15600
F1029       F  0.69329670  0.28277150  0.24430086    -0.15600
F1030       F  0.75723839  0.31521972  0.25855111    -0.13300
C1031       C  0.51928034  0.21362158  0.26008931     0.24700
C1032       C  0.51206258  0.22384023  0.22600389    -0.23400
C1033       C  0.99571416  0.25546510  0.21369839     0.19600
C1034       C  0.98732397  0.27670929  0.23499932     0.24700
C1035       C  0.99394336  0.26643170  0.26888723    -0.23300
C1036       C  0.51047877  0.23471376  0.28134205     0.19600
F1037       F  0.51697093  0.22364694  0.31350424    -0.13300
F1038       F  0.53574799  0.18332735  0.27318395    -0.15600
F1039       F  0.97181022  0.30733118  0.22204513    -0.15600
F1040       F  0.98954424  0.26667146  0.18167353    -0.13300
Fe1041     Fe  0.60776890  0.21410056  0.72602778     1.65800
Fe1042     Fe  0.62932821  0.14800320  0.69198006     1.73200
Fe1043     Fe  0.54735246  0.18790264  0.64640783     1.54400
O1044       O  0.52095429  0.20805432  0.67580364    -0.80500
O1045       O  0.63032201  0.16421478  0.64802648    -0.78800
O1046       O  0.56363845  0.19553152  0.72981792    -0.83000
O1047       O  0.57497354  0.25402151  0.69177900    -0.77900
O1048       O  0.53257568  0.14151295  0.65391214    -0.79700
O1049       O  0.67707611  0.18000938  0.72074731    -0.82400
C1050       C  0.55958300  0.25792623  0.65823844     0.98300
C1051       C  0.53167641  0.20656490  0.70898440     1.05800
O1052       O  0.59539380  0.18368824  0.68759067    -1.11400
O1053       O  0.62692864  0.13015010  0.73527531    -0.73800
O1054       O  0.63912634  0.17814737  0.76443437    -0.77300
O1055       O  0.56145253  0.23492221  0.63872173    -0.78000
C1056       C  0.63134408  0.14676339  0.76202360     0.97300
O1057       O  0.65326980  0.23050014  0.72239526    -0.76000
O1058       O  0.58438548  0.11385668  0.66192572    -0.81200
C1059       C  0.60201460  0.16083865  0.61807433     0.99900
C1060       C  0.54873788  0.11515824  0.65130435     1.05800
O1061       O  0.56858264  0.16742725  0.61312141    -0.76800
C1062       C  0.68027309  0.21232443  0.72468370     1.04100
Fe1063     Fe  0.60573365  0.02979996  0.97438333     1.65800
Fe1064     Fe  0.62659328  0.09604573  0.94074126     1.73200
Fe1065     Fe  0.54534342  0.05534836  0.89439752     1.54400
O1066       O  0.56022035  0.50806620  0.88711450    -0.80500
O1067       O  0.58142529  0.12990084  0.91077038    -0.78800
O1068       O  0.57342120  0.48961741  0.94011933    -0.83000
O1069       O  0.56111035  0.04841079  0.97781910    -0.77900
O1070       O  0.56681481  0.07549878  0.86131976    -0.79700
O1071       O  0.62304079  0.11336762  0.98379529    -0.82400
C1072       C  0.52932573  0.03710021  0.95681581     0.98300
C1073       C  0.55854172  0.48527420  0.90669975     1.05800
O1074       O  0.59318141  0.05999153  0.93581581    -1.11400
O1075       O  0.67468903  0.06411497  0.96967390    -0.73800
O1076       O  0.65157517  0.01336158  0.97116060    -0.77300
O1077       O  0.51883047  0.03541900  0.92365332    -0.78000
C1078       C  0.67852981  0.03186337  0.97421236     0.97300
O1079       O  0.63699554  0.06523186  0.51302149    -0.76000
O1080       O  0.62851381  0.08085134  0.89671950    -0.81200
C1081       C  0.54573450  0.12841706  0.89966495     0.99900
C1082       C  0.60012761  0.08299173  0.86660887     1.05800
O1083       O  0.52943716  0.10185168  0.90113918    -0.76800
C1084       C  0.62848048  0.09638042  0.51066055     1.04100
Fe1085     Fe  0.89588844  0.27948458  0.76201490     1.65800
Fe1086     Fe  0.87362446  0.34504046  0.79622175     1.73200
Fe1087     Fe  0.95241117  0.30141319  0.84445536     1.54400
O1088       O  0.93219411  0.25546825  0.84692387    -0.80500
O1089       O  0.91945252  0.37740104  0.82810521    -0.78800
O1090       O  0.92496809  0.23802803  0.79545338    -0.83000
O1091       O  0.94302668  0.29760344  0.76360004    -0.77900
O1092       O  0.92948609  0.32176775  0.87592384    -0.79700
O1093       O  0.87927240  0.36345218  0.75481763    -0.82400
C1094       C  0.97337475  0.28410536  0.78496238     0.98300
C1095       C  0.93664314  0.23305484  0.82839009     1.05800
O1096       O  0.90670247  0.30862156  0.80128338    -1.11400
O1097       O  0.82531677  0.31427016  0.76483887    -0.73800
O1098       O  0.84775942  0.26375490  0.76070715    -0.77300
O1099       O  0.98144350  0.28093792  0.81743377    -0.78000
C1100       C  0.82097372  0.28228255  0.75831100     0.97300
O1101       O  0.86771415  0.31644693  0.72379981    -0.76000
O1102       O  0.86879704  0.32928574  0.83861595    -0.81200
C1103       C  0.95546007  0.37492857  0.84140274     0.99900
C1104       C  0.89613904  0.33035872  0.86941536     1.05800
O1105       O  0.97201186  0.34749831  0.84218977    -0.76800
C1106       C  0.87458673  0.34793729  0.72744235     1.04100
Fe1107     Fe  0.89507641  0.46584009  0.51307520     1.65800
Fe1108     Fe  0.87384440  0.39984765  0.54689232     1.73200
Fe1109     Fe  0.95420294  0.44130314  0.59410320     1.54400
O1110       O  0.98195543  0.46149459  0.56603520    -0.80500
O1111       O  0.87075817  0.41660024  0.58994030    -0.78800
O1112       O  0.94103314  0.44832255  0.51139134    -0.83000
O1113       O  0.92575527  0.00615194  0.54714263    -0.77900
O1114       O  0.97186462  0.39472180  0.58944526    -0.79700
O1115       O  0.82539694  0.43077691  0.51653752    -0.82400
C1116       C  0.93998088  0.01015361  0.58055353     0.98300
C1117       C  0.97246237  0.45990003  0.53308153     1.05800
O1118       O  0.90732367  0.43569932  0.55166697    -1.11400
O1119       O  0.87745655  0.38148983  0.00412099    -0.73800
O1120       O  0.86543367  0.42914667  0.97441133    -0.77300
O1121       O  0.93670628  0.48783869  0.59935693    -0.78000
C1122       C  0.87239625  0.39758251  0.97700967     0.97300
O1123       O  0.84782398  0.48161028  0.51437480    -0.76000
O1124       O  0.91940366  0.36639601  0.57795339    -0.81200
C1125       C  0.89835119  0.41467488  0.62049720     0.99900
C1126       C  0.95534900  0.36790701  0.59013982     1.05800
O1127       O  0.93194177  0.42141918  0.62632605    -0.76800
C1128       C  0.82093996  0.46283207  0.51102579     1.04100
C1129       C  0.85909026  0.39084275  0.91411435     0.24700
C1130       C  0.87646888  0.37909377  0.94892647    -0.23400
C1131       C  0.90040319  0.35054115  0.95750723     0.19600
C1132       C  0.90685259  0.33433222  0.93183526     0.24700
C1133       C  0.88897996  0.34586320  0.89701204    -0.23300
C1134       C  0.86502138  0.37427854  0.88841633     0.19600
F1135       F  0.84856431  0.38708833  0.85526596    -0.13300
F1136       F  0.83653262  0.41853829  0.90488715    -0.15600
F1137       F  0.93049285  0.30739427  0.94101415    -0.15600
F1138       F  0.91894303  0.33906541  0.99113497    -0.13300
C1139       C  0.85916690  0.37939772  0.63893932     0.24700
C1140       C  0.89076246  0.40066133  0.64849075    -0.23400
C1141       C  0.91578749  0.40552732  0.68442146     0.19600
C1142       C  0.90970476  0.38911105  0.71007259     0.24700
C1143       C  0.87893778  0.36700361  0.70023206    -0.23300
C1144       C  0.85368234  0.36252001  0.66454041     0.19600
F1145       F  0.82356785  0.34176379  0.65439997    -0.13300
F1146       F  0.83418850  0.37354735  0.60461679    -0.15600
F1147       F  0.93493338  0.39359777  0.74457402    -0.15600
F1148       F  0.94626591  0.42585999  0.69474265    -0.13300
C1149       C  0.77589702  0.01157548  0.48423143     0.24700
C1150       C  0.78370433  0.47963471  0.50025342    -0.23400
C1151       C  0.75601970  0.46442099  0.00700693     0.19600
C1152       C  0.72237876  0.48157475  0.99899588     0.24700
C1153       C  0.71518867  0.01450106  0.98379908    -0.23300
C1154       C  0.74234751  0.02882212  0.47636997     0.19600
F1155       F  0.73597266  0.05929467  0.46028312    -0.13300
F1156       F  0.80062014  0.02644215  0.47544477    -0.15600
F1157       F  0.69713812  0.46616124  0.00674401    -0.15600
F1158       F  0.76191840  0.43355100  0.02224436    -0.13300
C1159       C  0.99538222  0.98718029  0.96226519     0.24700
C1160       C  0.50972773  0.01969383  0.97367951    -0.23400
C1161       C  0.51522909  0.53064577  0.00684140     0.19600
C1162       C  0.50776065  0.50943304  0.52866832     0.24700
C1163       C  0.99304148  0.47718620  0.51706425    -0.23300
C1164       C  0.98736643  0.96589367  0.48357013     0.19600
F1165       F  0.97356794  0.93457746  0.47156129    -0.13300
F1166       F  0.99049121  0.97518262  0.93082383    -0.15600
F1167       F  0.51301142  0.52123853  0.56029412    -0.15600
F1168       F  0.52936989  0.56187463  0.01889076    -0.13300
C1169       C  0.01089382  0.40012383  0.89247522     0.24700
C1170       C  0.98014301  0.40393994  0.85849131    -0.23400
C1171       C  0.47574377  0.43401192  0.84033729     0.19600
C1172       C  0.50214155  0.45987994  0.85554477     0.24700
C1173       C  0.53334489  0.45614743  0.88957121    -0.23300
C1174       C  0.53702199  0.42608939  0.90804399     0.19600
F1175       F  0.56577215  0.42188961  0.94115954    -0.13300
F1176       F  0.01535537  0.37116779  0.91078742    -0.15600
F1177       F  0.49625130  0.48905891  0.83728071    -0.15600
F1178       F  0.44649578  0.43805069  0.80746145    -0.13300
C1179       C  0.01814857  0.18466522  0.89992881     0.24700
C1180       C  0.52065061  0.15673333  0.88130089    -0.23400
C1181       C  0.49410728  0.15271633  0.84554091     0.19600
C1182       C  0.96534313  0.17651217  0.82853045     0.24700
C1183       C  0.96279626  0.20484230  0.84701773    -0.23300
C1184       C  0.98946519  0.20843935  0.88314221     0.19600
F1185       F  0.98858832  0.23542991  0.90230089    -0.13300
F1186       F  0.04275053  0.18837444  0.93469717    -0.15600
F1187       F  0.94028812  0.17188298  0.79401334    -0.15600
F1188       F  0.49562580  0.12523165  0.82728144    -0.13300
C1189       C  0.59432536  0.08427946  0.80562270     0.24700
C1190       C  0.60675876  0.09880363  0.83894061    -0.23400
C1191       C  0.62796979  0.12883998  0.84719580     0.19200
C1192       C  0.63676216  0.14402206  0.82273656     0.24700
C1193       C  0.62491718  0.12939126  0.78940035    -0.23300
C1194       C  0.60353701  0.09919338  0.78115187     0.19600
F1195       F  0.59062451  0.08437767  0.74904182    -0.13300
F1196       F  0.57403022  0.05530658  0.79703380    -0.15600
F1197       F  0.65695096  0.17306981  0.83185189    -0.15600
F1198       F  0.63968637  0.14397885  0.87903863    -0.13300
C1199       C  0.64733108  0.10852147  0.57388913     0.24700
C1200       C  0.62244112  0.11334535  0.53818760    -0.23400
C1201       C  0.59031946  0.13385963  0.52844616     0.19600
C1202       C  0.58340326  0.14953951  0.55410617     0.24700
C1203       C  0.60890190  0.14555033  0.58999256    -0.23300
C1204       C  0.64091603  0.12460935  0.59953606     0.19600
F1205       F  0.66560505  0.11857689  0.63387195    -0.13300
F1206       F  0.67812113  0.08846826  0.58398571    -0.15600
F1207       F  0.55182531  0.16852190  0.54381111    -0.15600
F1208       F  0.56516222  0.13814585  0.99407656    -0.13300
C1209       C  0.99186536  0.09346242  0.59928802     0.24700
C1210       C  0.52350108  0.08701904  0.63232052    -0.23400
C1211       C  0.52704892  0.05568243  0.64821929     0.19600
C1212       C  0.99914065  0.03125393  0.63173576     0.24700
C1213       C  0.96713617  0.03768349  0.59880822    -0.23300
C1214       C  0.96421244  0.06886154  0.58251387     0.19600
F1215       F  0.93443976  0.07567905  0.55061772    -0.13300
F1216       F  0.98780319  0.12381369  0.58336524    -0.15600
F1217       F  0.50391196  0.00088899  0.64782216    -0.15600
F1218       F  0.55684636  0.04914170  0.68017080    -0.13300
C1219       C  0.47433088  0.30721477  0.59207418     0.24700
C1220       C  0.98016707  0.33891240  0.60812858    -0.23400
C1221       C  0.01215016  0.34397914  0.64119945     0.19600
C1222       C  0.53846476  0.31807133  0.65741597     0.24700
C1223       C  0.53352517  0.28661552  0.64076648    -0.23300
C1224       C  0.50086383  0.28140161  0.60798868     0.19600
F1225       F  0.49388326  0.25089397  0.59164998    -0.13300
F1226       F  0.44364866  0.30152966  0.56044805    -0.15600
F1227       F  0.56883411  0.32384770  0.68923984    -0.15600
F1228       F  0.01785163  0.37422412  0.65789477    -0.13300
C1229       C  0.77944929  0.23034137  0.73845805     0.24700
C1230       C  0.78409465  0.26507123  0.74779408    -0.23400
C1231       C  0.75381047  0.28215668  0.74841785     0.19600
C1232       C  0.72046437  0.26506181  0.74099479     0.24700
C1233       C  0.71620425  0.23012946  0.73264303    -0.23300
C1234       C  0.74613608  0.21322046  0.73113338     0.19600
F1235       F  0.74328574  0.18004059  0.72228236    -0.13300
F1236       F  0.80717124  0.21246882  0.73632664    -0.15600
F1237       F  0.69246738  0.28308967  0.74243468    -0.15600
F1238       F  0.75643066  0.31545747  0.75671577    -0.13300
C1239       C  0.51947107  0.21381634  0.76024854     0.24700
C1240       C  0.51193462  0.22376742  0.72599351    -0.23400
C1241       C  0.99548158  0.25553613  0.71345850     0.19600
C1242       C  0.98707773  0.27677467  0.73474883     0.24700
C1243       C  0.99368854  0.26649497  0.76863343    -0.23300
C1244       C  0.51059364  0.23499081  0.78138801     0.19600
F1245       F  0.51742187  0.22418305  0.81373252    -0.13300
F1246       F  0.53633026  0.18371899  0.77362279    -0.15600
F1247       F  0.97156772  0.30739617  0.72178940    -0.15600
F1248       F  0.98932665  0.26674215  0.68143700    -0.13300
Fe1249     Fe  0.60783492  0.71413647  0.22593968     1.65800
Fe1250     Fe  0.62925329  0.64796796  0.19185396     1.73200
Fe1251     Fe  0.54736153  0.68798458  0.14632890     1.54400
O1252       O  0.52101836  0.70825366  0.17574452    -0.80500
O1253       O  0.63024089  0.66414580  0.14788938    -0.78800
O1254       O  0.56367216  0.69571275  0.22977591    -0.83000
O1255       O  0.57512195  0.75407932  0.19168129    -0.77900
O1256       O  0.53246983  0.64164921  0.15384345    -0.79700
O1257       O  0.67708694  0.67991409  0.22060634    -0.82400
C1258       C  0.55976403  0.75796729  0.15814062     0.98300
C1259       C  0.53172049  0.70676079  0.20892461     1.05800
O1260       O  0.59538735  0.68369782  0.18750721    -1.11400
O1261       O  0.62685615  0.63015459  0.23515318    -0.73800
O1262       O  0.63912641  0.67815365  0.26435157    -0.77300
O1263       O  0.56163119  0.73493536  0.13865364    -0.78000
C1264       C  0.63131028  0.64677585  0.26190907     0.97300
O1265       O  0.65333931  0.73043018  0.22227538    -0.76000
O1266       O  0.58420975  0.61388210  0.16182815    -0.81200
C1267       C  0.60192082  0.66074769  0.11795258     0.99900
C1268       C  0.54856508  0.61524706  0.15123552     1.05800
O1269       O  0.56850520  0.66739014  0.11301392    -0.76800
C1270       C  0.68033184  0.71222405  0.22459747     1.04100
Fe1271     Fe  0.60568815  0.52974570  0.47430378     1.65800
Fe1272     Fe  0.62659751  0.59599740  0.44074217     1.73200
Fe1273     Fe  0.54539615  0.55525011  0.39426451     1.54400
O1274       O  0.56058997  0.00798308  0.38723763    -0.80500
O1275       O  0.58143067  0.62984387  0.41072534    -0.78800
O1276       O  0.57365805  0.98961438  0.44023434    -0.83000
O1277       O  0.56100335  0.54836778  0.47760598    -0.77900
O1278       O  0.56698023  0.57545053  0.36126472    -0.79700
O1279       O  0.62293765  0.61332212  0.48374023    -0.82400
C1280       C  0.52925760  0.53698742  0.45660597     0.98300
C1281       C  0.55883967  0.98522798  0.40682395     1.05800
O1282       O  0.59319468  0.55991263  0.43573963    -1.11400
O1283       O  0.67469780  0.56409032  0.46973476    -0.73800
O1284       O  0.65159745  0.51332313  0.47119155    -0.77300
O1285       O  0.51879916  0.53529280  0.42344943    -0.78000
C1286       C  0.67855073  0.53183785  0.47426087     0.97300
O1287       O  0.63699216  0.56512190  0.01292720    -0.76000
O1288       O  0.62863926  0.58078385  0.39679248    -0.81200
C1289       C  0.54573116  0.62832086  0.39956540     0.99900
C1290       C  0.60032498  0.58297610  0.36664466     1.05800
O1291       O  0.52945456  0.60172787  0.40099790    -0.76800
C1292       C  0.62849051  0.59627201  0.01059947     1.04100
Fe1293     Fe  0.89593233  0.77941738  0.26214765     1.65800
Fe1294     Fe  0.87368836  0.84498324  0.29633004     1.73200
Fe1295     Fe  0.95242558  0.80130331  0.34461819     1.54400
O1296       O  0.93216725  0.75535675  0.34702938    -0.80500
O1297       O  0.91953584  0.87732884  0.32823778    -0.78800
O1298       O  0.92498898  0.73795807  0.29556480    -0.83000
O1299       O  0.94308255  0.79755692  0.26378432    -0.77900
O1300       O  0.92946190  0.82165073  0.37606340    -0.79700
O1301       O  0.87936190  0.86337775  0.25492283    -0.82400
C1302       C  0.97341603  0.78402834  0.28513326     0.98300
C1303       C  0.93662934  0.73295824  0.32848882     1.05800
O1304       O  0.90674447  0.80854583  0.30142188    -1.11400
O1305       O  0.82537472  0.81421934  0.26492234    -0.73800
O1306       O  0.84779933  0.76368142  0.26081375    -0.77300
O1307       O  0.98147781  0.78084267  0.31760303    -0.78000
C1308       C  0.82101233  0.78223472  0.25837072     0.97300
O1309       O  0.86774930  0.81636357  0.22391864    -0.76000
O1310       O  0.86880453  0.82924116  0.33870080    -0.81200
C1311       C  0.95554980  0.87483258  0.34159317     0.99900
C1312       C  0.89611147  0.83027331  0.36952112     1.05800
O1313       O  0.97209281  0.84738234  0.34243465    -0.76800
C1314       C  0.87461152  0.84785439  0.22752918     1.04100
Fe1315     Fe  0.89501727  0.96579784  0.01303551     1.65800
Fe1316     Fe  0.87371682  0.89974034  0.04674176     1.73200
Fe1317     Fe  0.95401187  0.94126175  0.09408266     1.54400
O1318       O  0.98185117  0.96153601  0.06612946    -0.80500
O1319       O  0.87053842  0.91633605  0.08980294    -0.78800
O1320       O  0.94104772  0.94830905  0.01147137    -0.83000
O1321       O  0.92569485  0.50615151  0.04723254    -0.77900
O1322       O  0.97173840  0.89470678  0.08942234    -0.79700
O1323       O  0.82527776  0.93069550  0.01640589    -0.82400
C1324       C  0.93992110  0.51010645  0.08064798     0.98300
C1325       C  0.97243618  0.95993235  0.03319561     1.05800
O1326       O  0.90718326  0.93563780  0.05160044    -1.11400
O1327       O  0.87743300  0.88145663  0.50423544    -0.73800
O1328       O  0.86538914  0.92907577  0.47445484    -0.77300
O1329       O  0.93641920  0.98776815  0.09931589    -0.78000
C1330       C  0.87234842  0.89751033  0.47709525     0.97300
O1331       O  0.84770702  0.98153063  0.01422653    -0.76000
O1332       O  0.91928973  0.86630051  0.07780272    -0.81200
C1333       C  0.89812488  0.91448109  0.12037458     0.99900
C1334       C  0.95524684  0.86786011  0.09007855     1.05800
O1335       O  0.93170251  0.92130954  0.12622592    -0.76800
C1336       C  0.82082805  0.96275286  0.01088844     1.04100
C1337       C  0.85876508  0.89055389  0.41415531     0.24700
C1338       C  0.87639947  0.87898287  0.44902824    -0.23400
C1339       C  0.90055648  0.85058911  0.45767235     0.19600
C1340       C  0.90699997  0.83437185  0.43200020     0.24700
C1341       C  0.88890117  0.84573669  0.39711413    -0.23300
C1342       C  0.86469180  0.87398427  0.38845813     0.19600
F1343       F  0.84798232  0.88664694  0.35524488    -0.13300
F1344       F  0.83595861  0.91808474  0.40486906    -0.15600
F1345       F  0.93087435  0.80760151  0.44124809    -0.15600
F1346       F  0.91932646  0.83930173  0.49135841    -0.13300
C1347       C  0.85912904  0.87903572  0.13890015     0.24700
C1348       C  0.89057134  0.90047628  0.14839180    -0.23400
C1349       C  0.91550716  0.90554626  0.18430942     0.19600
C1350       C  0.90948314  0.88917084  0.21001416     0.24700
C1351       C  0.87886340  0.86690270  0.20024810    -0.23300
C1352       C  0.85369833  0.86220481  0.16455958     0.19600
F1353       F  0.82373315  0.84127454  0.15447766    -0.13300
F1354       F  0.83427085  0.87296516  0.10459011    -0.15600
F1355       F  0.93464435  0.89385230  0.24450286    -0.15600
F1356       F  0.94585075  0.92603878  0.19456853    -0.13300
C1357       C  0.77609877  0.51177497  0.98473991     0.24700
C1358       C  0.78360926  0.97957382  0.00013474    -0.23400
C1359       C  0.75638954  0.96478740  0.50771105     0.19600
C1360       C  0.72281370  0.98200810  0.49979417     0.24700
C1361       C  0.71522299  0.51449270  0.48385244    -0.23300
C1362       C  0.74249394  0.52895498  0.97679553     0.19600
F1363       F  0.73643368  0.55971530  0.96131656    -0.13300
F1364       F  0.80113588  0.52699946  0.97660085    -0.15600
F1365       F  0.69788353  0.96693412  0.50818672    -0.15600
F1366       F  0.76257285  0.93418519  0.52352357    -0.13300
C1367       C  0.99532451  0.48720576  0.46208687     0.24700
C1368       C  0.50967823  0.51955533  0.47348383    -0.23400
C1369       C  0.51548744  0.03046290  0.50687282     0.19600
C1370       C  0.50766151  0.00971481  0.02880981     0.24700
C1371       C  0.99304148  0.97724396  0.01722160    -0.23300
C1372       C  0.98761869  0.46587782  0.98377119     0.19600
F1373       F  0.97409551  0.43445176  0.97194802    -0.13300
F1374       F  0.99030639  0.47528178  0.43057770    -0.15600
F1375       F  0.51266482  0.02164215  0.06031321    -0.15600
F1376       F  0.52983282  0.06160897  0.51904747    -0.13300
C1377       C  0.01103682  0.90005934  0.39262191     0.24700
C1378       C  0.98024578  0.90385325  0.35865341    -0.23400
C1379       C  0.47590310  0.93406267  0.34050081     0.19600
C1380       C  0.50234949  0.95990026  0.35569898     0.24700
C1381       C  0.53358076  0.95613219  0.38970262    -0.23300
C1382       C  0.53722147  0.92608083  0.40817375     0.19600
F1383       F  0.56598846  0.92185717  0.44127642    -0.13300
F1384       F  0.01555818  0.87110469  0.41095152    -0.15600
F1385       F  0.49648115  0.98908761  0.33745233    -0.15600
F1386       F  0.44662489  0.93813910  0.30764885    -0.13300
C1387       C  0.01813582  0.68453907  0.39997759     0.24700
C1388       C  0.52061131  0.65662978  0.38122009    -0.23400
C1389       C  0.49345657  0.65233791  0.34569107     0.19600
C1390       C  0.96535189  0.67645430  0.32856476     0.24700
C1391       C  0.96277406  0.70473771  0.34709288    -0.23300
C1392       C  0.98942070  0.70829372  0.38322691     0.19600
F1393       F  0.98849113  0.73522670  0.40242826    -0.13300
F1394       F  0.04271694  0.68820302  0.43475717    -0.15600
F1395       F  0.94029583  0.67185007  0.29404357    -0.15600
F1396       F  0.49430809  0.62450524  0.32754664    -0.13300
C1397       C  0.59329343  0.58498898  0.30519684     0.24700
C1398       C  0.60710228  0.59874876  0.33901464    -0.23400
C1399       C  0.62949497  0.62810758  0.34763863     0.19200
C1400       C  0.63810512  0.64331864  0.32307199     0.24700
C1401       C  0.62489771  0.62939809  0.28926519    -0.23300
C1402       C  0.60232705  0.59992568  0.28061966     0.19600
F1403       F  0.58802274  0.58593039  0.24800575    -0.13300
F1404       F  0.57176311  0.55674469  0.29617554    -0.15600
F1405       F  0.65948671  0.67167340  0.33253969    -0.15600
F1406       F  0.64249410  0.64263213  0.37992890    -0.13300
C1407       C  0.64719853  0.60828583  0.07382769     0.24700
C1408       C  0.62240109  0.61319721  0.03811823    -0.23400
C1409       C  0.59030139  0.63374863  0.02835213     0.19600
C1410       C  0.58334763  0.64942318  0.05399233     0.24700
C1411       C  0.60878290  0.64538301  0.08988649    -0.23300
C1412       C  0.64073961  0.62435821  0.09945702     0.19600
F1413       F  0.66533048  0.61823992  0.13380049    -0.13300
F1414       F  0.67794323  0.58816727  0.08395051    -0.15600
F1415       F  0.55180382  0.66845984  0.04366991    -0.15600
F1416       F  0.56510430  0.63821070  0.49404078    -0.13300
C1417       C  0.99168201  0.59346801  0.09948671     0.24700
C1418       C  0.52325991  0.58711311  0.13231368    -0.23400
C1419       C  0.52718860  0.55562081  0.14803040     0.19600
C1420       C  0.99921681  0.53110296  0.13172115     0.24700
C1421       C  0.96707553  0.53762160  0.09892155    -0.23300
C1422       C  0.96401454  0.56887827  0.08273016     0.19600
F1423       F  0.93409912  0.57577563  0.05095028    -0.13300
F1424       F  0.98749560  0.62389010  0.08366184    -0.15600
F1425       F  0.50447934  0.50060052  0.14748574    -0.15600
F1426       F  0.55730598  0.54898254  0.17974564    -0.13300
C1427       C  0.47461285  0.80726666  0.09183789     0.24700
C1428       C  0.98009251  0.83887633  0.10810570    -0.23400
C1429       C  0.01240806  0.84407445  0.14091990     0.19600
C1430       C  0.53848670  0.81803797  0.15738967     0.24700
C1431       C  0.53371974  0.78665602  0.14063640    -0.23300
C1432       C  0.50119364  0.78148890  0.10774005     0.19600
F1433       F  0.49437910  0.75105707  0.09126662    -0.13300
F1434       F  0.44406708  0.80163511  0.06010152    -0.15600
F1435       F  0.56872008  0.82377205  0.18931643    -0.15600
F1436       F  0.01851234  0.87449119  0.15735508    -0.13300
C1437       C  0.77920678  0.73050790  0.23770667     0.24700
C1438       C  0.78411373  0.76504914  0.24778191    -0.23400
C1439       C  0.75412805  0.78191868  0.24917551     0.19600
C1440       C  0.72081827  0.76477722  0.24177252     0.24700
C1441       C  0.71629009  0.73001920  0.23265397    -0.23300
C1442       C  0.74592223  0.71333447  0.23039696     0.19600
F1443       F  0.74276820  0.68035554  0.22076860    -0.13300
F1444       F  0.80662965  0.71289571  0.23479242    -0.15600
F1445       F  0.69314111  0.78256577  0.24404102    -0.15600
F1446       F  0.75704790  0.81502137  0.25828700    -0.13300
C1447       C  0.51921031  0.71374486  0.26003279     0.24700
C1448       C  0.51195614  0.72393969  0.22592865    -0.23400
C1449       C  0.99540340  0.75532514  0.21358247     0.19600
C1450       C  0.98695321  0.77658365  0.23482418     0.24700
C1451       C  0.99371587  0.76641212  0.26878784    -0.23300
C1452       C  0.51035920  0.73482703  0.28126133     0.19600
F1453       F  0.51683828  0.72376223  0.31342254    -0.13300
F1454       F  0.53575458  0.68348486  0.27316654    -0.15600
F1455       F  0.97124857  0.80711545  0.22173429    -0.15600
F1456       F  0.98907618  0.76642917  0.18147546    -0.13300
Fe1457     Fe  0.60785011  0.71406459  0.72615181     1.65800
Fe1458     Fe  0.62950931  0.64801816  0.69211413     1.73200
Fe1459     Fe  0.54754587  0.68794475  0.64645334     1.54400
O1460       O  0.52105430  0.70808090  0.67579719    -0.80500
O1461       O  0.63059083  0.66423954  0.64819622    -0.78800
O1462       O  0.56365400  0.69544951  0.72980124    -0.83000
O1463       O  0.57509803  0.75401634  0.69191381    -0.77900
O1464       O  0.53267982  0.64151841  0.65378485    -0.79700
O1465       O  0.67722759  0.68002277  0.72094609    -0.82400
C1466       C  0.55977557  0.75793323  0.65837919     0.98300
C1467       C  0.53173901  0.70657919  0.70897222     1.05800
O1468       O  0.59554378  0.68368373  0.68769676    -1.11400
O1469       O  0.62707514  0.63012492  0.73538382    -0.73800
O1470       O  0.63916055  0.67809595  0.76456076    -0.77300
O1471       O  0.56174691  0.73495998  0.63889058    -0.78000
C1472       C  0.63147303  0.64669035  0.76215385     0.97300
O1473       O  0.65342041  0.73050161  0.72265273    -0.76000
O1474       O  0.58459231  0.61388191  0.66200689    -0.81200
C1475       C  0.60231022  0.66095771  0.61820926     0.99900
C1476       C  0.54892861  0.61516413  0.65130050     1.05800
O1477       O  0.56886722  0.66754168  0.61322291    -0.76800
C1478       C  0.68043036  0.71233043  0.72494439     1.04100
Fe1479     Fe  0.60560542  0.52948664  0.97426121     1.65800
Fe1480     Fe  0.62657061  0.59577530  0.94072273     1.73200
Fe1481     Fe  0.54527575  0.55514375  0.89427500     1.54400
O1482       O  0.56036077  0.00828921  0.88726344    -0.80500
O1483       O  0.58148463  0.62967710  0.91077886    -0.78800
O1484       O  0.57356954  0.98988932  0.94028493    -0.83000
O1485       O  0.56096591  0.54809116  0.97768161    -0.77900
O1486       O  0.56681704  0.57524111  0.86126178    -0.79700
O1487       O  0.62294808  0.61303548  0.98376973    -0.82400
C1488       C  0.52914948  0.53688012  0.95661656     0.98300
C1489       C  0.55871290  0.98550257  0.90687075     1.05800
O1490       O  0.59311231  0.55972120  0.93571949    -1.11400
O1491       O  0.67462103  0.56381243  0.96965345    -0.73800
O1492       O  0.65149415  0.51304445  0.97109914    -0.77300
O1493       O  0.51868539  0.53525070  0.92346135    -0.78000
C1494       C  0.67846421  0.53156567  0.97421279     0.97300
O1495       O  0.63700156  0.56544002  0.51296188    -0.76000
O1496       O  0.62852631  0.58068486  0.89667270    -0.81200
C1497       C  0.54578840  0.62823925  0.89961821     0.99900
C1498       C  0.60012512  0.58273702  0.86655495     1.05800
O1499       O  0.52941488  0.60168534  0.90099998    -0.76800
C1500       C  0.62854769  0.59660671  0.51061481     1.04100
Fe1501     Fe  0.89601419  0.77935358  0.76218675     1.65800
Fe1502     Fe  0.87384185  0.84494786  0.79640538     1.73200
Fe1503     Fe  0.95260810  0.80127998  0.84463563     1.54400
O1504       O  0.93239514  0.75530732  0.84706016    -0.80500
O1505       O  0.91967441  0.87729528  0.82828204    -0.78800
O1506       O  0.92511549  0.73789913  0.79557082    -0.83000
O1507       O  0.94313419  0.79740551  0.76367222    -0.77900
O1508       O  0.92968780  0.82160228  0.87612268    -0.79700
O1509       O  0.87948807  0.86333530  0.75498267    -0.82400
C1510       C  0.97353660  0.78401273  0.78508933     0.98300
C1511       C  0.93680906  0.73289681  0.82850045     1.05800
O1512       O  0.90690684  0.80851719  0.80146141    -1.11400
O1513       O  0.82550417  0.81422035  0.76502529    -0.73800
O1514       O  0.84791272  0.76366310  0.76097879    -0.77300
O1515       O  0.98161058  0.78086729  0.81756731    -0.78000
C1516       C  0.82113438  0.78223018  0.75853776     0.97300
O1517       O  0.86779746  0.81630744  0.72399328    -0.76000
O1518       O  0.86901743  0.82918150  0.83879981    -0.81200
C1519       C  0.95568476  0.87482654  0.84162258     0.99900
C1520       C  0.89635065  0.83024094  0.86960519     1.05800
O1521       O  0.97225355  0.84738719  0.84247139    -0.76800
C1522       C  0.87474099  0.84778474  0.72760363     1.04100
Fe1523     Fe  0.89490700  0.96561370  0.51301440     1.65800
Fe1524     Fe  0.87373863  0.89958892  0.54686351     1.73200
Fe1525     Fe  0.95415240  0.94099664  0.59399013     1.54400
O1526       O  0.98181787  0.96124694  0.56588191    -0.80500
O1527       O  0.87078210  0.91629599  0.58998721    -0.78800
O1528       O  0.94083130  0.94810598  0.51125521    -0.83000
O1529       O  0.92590381  0.50640404  0.54717095    -0.77900
O1530       O  0.97173062  0.89442306  0.58919205    -0.79700
O1531       O  0.82529020  0.93054134  0.51662821    -0.82400
C1532       C  0.94006786  0.51043091  0.58057170     0.98300
C1533       C  0.97226740  0.95968945  0.53291822     1.05800
O1534       O  0.90720181  0.93544836  0.55160196    -1.11400
O1535       O  0.87761763  0.88165226  0.00420229    -0.73800
O1536       O  0.86562654  0.92926467  0.97442860    -0.77300
O1537       O  0.93674983  0.98752477  0.59937885    -0.78000
C1538       C  0.87260832  0.89770485  0.97708744     0.97300
O1539       O  0.84767111  0.98138113  0.51434690    -0.76000
O1540       O  0.91930975  0.86611579  0.57785571    -0.81200
C1541       C  0.89843150  0.91431908  0.62050742     0.99900
C1542       C  0.95524860  0.86762793  0.58999958     1.05800
O1543       O  0.93200069  0.92106598  0.62627933    -0.76800
C1544       C  0.82082699  0.96258922  0.51107673     1.04100
C1545       C  0.85912923  0.89070786  0.91418162     0.24700
C1546       C  0.87673572  0.87916900  0.94906546    -0.23400
C1547       C  0.90088750  0.85076626  0.95775381     0.19600
C1548       C  0.90730766  0.83447918  0.93210018     0.24700
C1549       C  0.88919425  0.84578704  0.89719343    -0.23300
C1550       C  0.86503197  0.87406988  0.88850573     0.19600
F1551       F  0.84833688  0.88669216  0.85527544    -0.13300
F1552       F  0.83636067  0.91826461  0.90486015    -0.15600
F1553       F  0.93116298  0.80769271  0.94138236    -0.15600
F1554       F  0.91966137  0.83952902  0.99146007    -0.13300
C1555       C  0.85960843  0.87863847  0.63898991     0.24700
C1556       C  0.89092265  0.90024311  0.64851337    -0.23400
C1557       C  0.91570862  0.90547688  0.68443328     0.19600
C1558       C  0.90961439  0.88915110  0.71012361     0.24700
C1559       C  0.87907578  0.86677429  0.70033439    -0.23300
C1560       C  0.85410311  0.86186962  0.66463177     0.19600
F1561       F  0.82425079  0.84079567  0.65451505    -0.13300
F1562       F  0.83495670  0.87235448  0.60466884    -0.15600
F1563       F  0.93462792  0.89399644  0.74462640    -0.15600
F1564       F  0.94594745  0.92610386  0.69470518    -0.13300
C1565       C  0.77645776  0.51234421  0.48525370     0.24700
C1566       C  0.78362180  0.97937412  0.50035178    -0.23400
C1567       C  0.75582365  0.96446356  0.00635721     0.19600
C1568       C  0.72219112  0.98161022  0.99838412     0.24700
C1569       C  0.71515426  0.51424329  0.98389668    -0.23300
C1570       C  0.74283021  0.52948471  0.47731715     0.19600
F1571       F  0.73704120  0.56051433  0.46242968    -0.13300
F1572       F  0.80174826  0.52787978  0.47767104    -0.15600
F1573       F  0.69673281  0.96593910  0.00565348    -0.15600
F1574       F  0.76145978  0.93335604  0.02106205    -0.13300
C1575       C  0.99531573  0.48695147  0.96205826     0.24700
C1576       C  0.50944370  0.51951919  0.97339346    -0.23400
C1577       C  0.51564253  0.03076624  0.00718916     0.19600
C1578       C  0.50745250  0.00941508  0.52845476     0.24700
C1579       C  0.99279105  0.97702015  0.51687799    -0.23300
C1580       C  0.98756107  0.46608752  0.48372734     0.19600
F1581       F  0.97369520  0.43479667  0.47168230    -0.13300
F1582       F  0.99058356  0.47486720  0.93070065    -0.15600
F1583       F  0.51250984  0.02131118  0.55998769    -0.15600
F1584       F  0.52989219  0.06195346  0.01929570    -0.13300
C1585       C  0.01106711  0.90018362  0.89265413     0.24700
C1586       C  0.98032774  0.90388394  0.85864521    -0.23400
C1587       C  0.47616075  0.93403209  0.84043911     0.19600
C1588       C  0.50253477  0.95991906  0.85562547     0.24700
C1589       C  0.53357840  0.95632374  0.88977054    -0.23300
C1590       C  0.53712346  0.92636621  0.90836316     0.19600
F1591       F  0.56570712  0.92229465  0.94158576    -0.13300
F1592       F  0.01561291  0.87126192  0.91103891    -0.15600
F1593       F  0.49676944  0.98898313  0.83720730    -0.15600
F1594       F  0.44705991  0.93794497  0.80746190    -0.13300
C1595       C  0.01791404  0.68419319  0.90012646     0.24700
C1596       C  0.52080660  0.65662671  0.88131979    -0.23400
C1597       C  0.49446299  0.65280931  0.84547821     0.19600
C1598       C  0.96584261  0.67656703  0.82844950     0.24700
C1599       C  0.96290245  0.70462145  0.84707649    -0.23300
C1600       C  0.98920034  0.70793870  0.88334219     0.19600
F1601       F  0.98793130  0.73462553  0.90266491    -0.13300
F1602       F  0.04215609  0.68763102  0.93501760    -0.15600
F1603       F  0.94117146  0.67219527  0.79378522    -0.15600
F1604       F  0.49613875  0.62548121  0.82710450    -0.13300
C1605       C  0.59569578  0.58336485  0.80611080     0.24700
C1606       C  0.60668722  0.59858263  0.83888760    -0.23400
C1607       C  0.62667248  0.62927077  0.84676165     0.19200
C1608       C  0.63560607  0.64449160  0.82241411     0.24700
C1609       C  0.62513642  0.62924355  0.78957045    -0.23300
C1610       C  0.60505805  0.59831902  0.78175815     0.19600
F1611       F  0.59362430  0.58274691  0.75020585    -0.13300
F1612       F  0.57670729  0.55368559  0.79797590    -0.15600
F1613       F  0.65453148  0.67421307  0.83114944    -0.15600
F1614       F  0.63708785  0.64495143  0.87813475    -0.13300
C1615       C  0.64752791  0.60871578  0.57388220     0.24700
C1616       C  0.62263387  0.61362211  0.53819322    -0.23400
C1617       C  0.59061432  0.63426213  0.52851316     0.19600
C1618       C  0.58376050  0.64991967  0.55421963     0.24700
C1619       C  0.60922081  0.64578586  0.59009482    -0.23300
C1620       C  0.64118023  0.62478972  0.59957754     0.19600
F1621       F  0.66586664  0.61867837  0.63389631    -0.13300
F1622       F  0.67824890  0.58858352  0.58392003    -0.15600
F1623       F  0.55227155  0.66901747  0.54397994    -0.15600
F1624       F  0.56482410  0.63760193  0.99385809    -0.13300
C1625       C  0.99262580  0.59338876  0.59917769     0.24700
C1626       C  0.52377365  0.58698623  0.63233888    -0.23400
C1627       C  0.52653439  0.55605505  0.64871444     0.19600
C1628       C  0.99901220  0.53155564  0.63203331     0.24700
C1629       C  0.96731094  0.53790692  0.59886576    -0.23300
C1630       C  0.96483675  0.56890012  0.58238455     0.19600
F1631       F  0.93537882  0.57564800  0.55027201    -0.13300
F1632       F  0.98898569  0.62357722  0.58307685    -0.15600
F1633       F  0.50254823  0.50177758  0.64881838    -0.15600
F1634       F  0.55568729  0.54981809  0.68113670    -0.13300
C1635       C  0.47437064  0.80699610  0.59214727     0.24700
C1636       C  0.98010515  0.83868919  0.60811034    -0.23400
C1637       C  0.01211341  0.84389001  0.64113711     0.19600
C1638       C  0.53856194  0.81806544  0.65739965     0.24700
C1639       C  0.53364263  0.78655769  0.64085950    -0.23300
C1640       C  0.50094860  0.78123048  0.60813423     0.19600
F1641       F  0.49398659  0.75065868  0.59192316    -0.13300
F1642       F  0.44365934  0.80120598  0.56056970    -0.15600
F1643       F  0.56895903  0.82394020  0.68917793    -0.15600
F1644       F  0.01778763  0.87420941  0.65769106    -0.13300
C1645       C  0.77942776  0.73043082  0.73831660     0.24700
C1646       C  0.78423490  0.76506532  0.74801970    -0.23400
C1647       C  0.75412349  0.78206976  0.74905811     0.19600
C1648       C  0.72079154  0.76497006  0.74168230     0.24700
C1649       C  0.71637464  0.73012477  0.73295027    -0.23300
C1650       C  0.74613240  0.71330591  0.73103895     0.19600
F1651       F  0.74310947  0.68022181  0.72180427    -0.13300
F1652       F  0.80696329  0.71266819  0.73574730    -0.15600
F1653       F  0.69297357  0.78289161  0.74356196    -0.15600
F1654       F  0.75691903  0.81527877  0.75774930    -0.13300
C1655       C  0.51953715  0.71388989  0.76023155     0.24700
C1656       C  0.51205535  0.72386930  0.72600004    -0.23400
C1657       C  0.99582117  0.75557724  0.71367676     0.19600
C1658       C  0.98742122  0.77680861  0.73497780     0.24700
C1659       C  0.99395817  0.76648396  0.76882424    -0.23300
C1660       C  0.51074150  0.73508667  0.78141018     0.19600
F1661       F  0.51754318  0.72425663  0.81373870    -0.13300
F1662       F  0.53625862  0.68373199  0.77354562    -0.15600
F1663       F  0.97197039  0.80745917  0.72206505    -0.15600
F1664       F  0.98972735  0.76681785  0.68168665    -0.13300
loop_ 
_geom_bond_atom_site_label_1 
_geom_bond_atom_site_label_2 
_geom_bond_distance 
_geom_bond_site_symmetry_2 
_ccdc_geom_bond_type 
Fe1          O17   2.021       .  S
Fe1           O7   2.143       .  S
Fe1          O14   2.097       .  S
Fe1           O6   2.003       .  S
Fe1          O12   1.910       .  S
Fe2           O5   2.020       .  S
Fe2           O9   2.144       .  S
Fe2          O13   2.042       .  S
Fe2          O18   2.139       .  S
Fe2          O12   1.909       .  S
Fe3          O21   2.140       .  S
Fe3           O8   2.010       .  S
Fe3          O15   2.024       .  S
Fe3           O4   2.150       .  S
Fe3          O12   1.918       .  S
O4           C11   1.284       .  A
O5           C19   1.262       .  A
O6           C11   1.250       .  A
O7           C10   1.284       .  A
O8           C20   1.261       .  A
O9           C22   1.291       .  A
C10          O15   1.262       .  A
C10         C183   1.487       .  S
C11         C200   1.474       .  S
O13          C16   1.261       .  A
O14          C16   1.276       .  A
C16         C153   1.493       .  S
O17          C22   1.266       .  A
O18          C20   1.285       .  A
C19          O21   1.285       .  A
C19         C163   1.487       .  S
C20         C170   1.470       .  S
C22         C193   1.499       .  S
Fe23         O29   2.008       .  S
Fe23         O36   2.020       .  S
Fe23        O247   2.091       .  S
Fe23        O444   2.130   1_545  S
Fe23         O34   1.916       .  S
Fe24         O27   2.134       .  S
Fe24         O31   2.040       .  S
Fe24         O35   2.150       .  S
Fe24         O40   2.022       .  S
Fe24         O34   1.909       .  S
Fe25         O43   2.013       .  S
Fe25         O30   2.142       .  S
Fe25         O37   2.153       .  S
Fe25        O442   2.025       .  S
Fe25         O34   1.919       .  S
O26        Fe441   2.025       .  S
O26          C33   1.263       .  A
O27          C41   1.284       .  A
O28        Fe439   2.130       .  S
O28          C33   1.282       .  A
O29          C32   1.251       .  A
O30          C42   1.286       .  A
O31         C252   1.260       .  A
C32          O37   1.285       .  A
C32         C120   1.475       .  S
C33         C133   1.484       .  S
O35          C38   1.292       .  A
O36          C38   1.267       .  A
C38         C113   1.496       .  S
O39        Fe231   2.091   1_554  S
O39          C44   1.272       .  A
O40          C42   1.263       .  A
C41          O43   1.261       .  A
C41         C140   1.466       .  S
C42         C150   1.480       .  S
C44         O239   1.260   1_554  A
C44         C160   1.476       .  S
Fe45         O61   2.095       .  S
Fe45         O51   2.003       .  S
Fe45         O58   2.013       .  S
Fe45         O50   2.135       .  S
Fe45         O56   1.916       .  S
Fe46         O49   2.133       .  S
Fe46         O53   2.040       .  S
Fe46         O57   2.150       .  S
Fe46         O62   2.026       .  S
Fe46         O56   1.902       .  S
Fe47         O65   2.015       .  S
Fe47         O52   2.121       .  S
Fe47         O59   2.155       .  S
Fe47         O48   2.023       .  S
Fe47         O56   1.923       .  S
O48          C55   1.259       .  A
O49          C63   1.287       .  A
O50          C55   1.282       .  A
O51          C54   1.251       .  A
O52          C64   1.280       .  A
O53          C66   1.260       .  A
C54          O59   1.284       .  A
C54         C203   1.477       .  S
C55         C143   1.485       .  S
O57          C60   1.292       .  A
O58          C60   1.266       .  A
C60         C190   1.499       .  S
O61          C66   1.273       .  A
O62          C64   1.263       .  A
C63          O65   1.265       .  A
C63         C130   1.471       .  S
C64          C93   1.479       .  S
C66         C103   1.476       .  S
Fe67         O83   2.025       .  S
Fe67         O72   2.007       .  S
Fe67        O489   2.134       .  S
Fe67        O288   2.097   1_554  S
Fe67         O78   1.917       .  S
Fe68         O71   2.024       .  S
Fe68         O75   2.146       .  S
Fe68         O84   2.143       .  S
Fe68        O287   2.037       .  S
Fe68         O78   1.906       .  S
Fe69         O87   2.130       .  S
Fe69         O74   2.019       .  S
Fe69         O81   2.021       .  S
Fe69         O70   2.154       .  S
Fe69         O78   1.923       .  S
O70          C77   1.284       .  A
O71          C85   1.262       .  A
O72          C77   1.253       .  A
O73        Fe483   2.134   1_545  S
O73          C76   1.282       .  A
O74          C86   1.264       .  A
O75          C88   1.290       .  A
C76         O497   1.260   1_545  A
C76         C173   1.482       .  S
C77         C123   1.476       .  S
O79        Fe276   2.037       .  S
O79          C82   1.262       .  A
O80        Fe275   2.096       .  S
O80          C82   1.275       .  A
O81         C492   1.260       .  A
C82          C90   1.484       .  S
O83          C88   1.267       .  A
O84          C86   1.287       .  A
C85          O87   1.283       .  A
C85         C100   1.486       .  S
C86         C180   1.479       .  S
C88         C110   1.498       .  S
C89          C90   1.402       .  A
C89          C94   1.397       .  A
C89          F96   1.358       .  S
C90          C91   1.416       .  A
C91          C92   1.401       .  A
C91          F98   1.358       .  S
C92          C93   1.400       .  A
C92          F97   1.358       .  S
C93          C94   1.413       .  A
C94          F95   1.359       .  S
C99         C100   1.417       .  A
C99         C104   1.396       .  A
C99         F106   1.358       .  S
C100        C101   1.404       .  A
C101        C102   1.402       .  A
C101        F108   1.358       .  S
C102        C103   1.412       .  A
C102        F107   1.358       .  S
C103        C104   1.397       .  A
C104        F105   1.358       .  S
C109        C114   1.403       .  A
C109        C526   1.419   1_546  A
C109        F116   1.358       .  S
C110        C525   1.418   1_554  A
C110        C319   1.404       .  A
C111        C112   1.403       .  A
C111        C318   1.404       .  A
C111        F118   1.358       .  S
C112        C529   1.418       .  A
C112        F117   1.358       .  S
C113        C528   1.418   1_545  A
C113        C322   1.404       .  A
C114        C321   1.404       .  A
C114        F115   1.358       .  S
C119        C952   1.401   1_565  A
C119        C332   1.397       .  A
C119        F126   1.356       .  S
C120        C951   1.401   1_445  A
C120        C537   1.414       .  A
C121        C536   1.414       .  A
C121        C330   1.399       .  A
C121        F128   1.359       .  S
C122        C329   1.399       .  A
C122        C955   1.403   1_455  A
C122        F127   1.356       .  S
C123        C954   1.403       .  A
C123        C540   1.413   1_554  A
C124        C327   1.397       .  A
C124        C539   1.413   1_556  A
C124        F125   1.359       .  S
C129        C130   1.410       .  A
C129        C966   1.399       .  A
C129        F136   1.359       .  S
C130        C963   1.396       .  A
C131        C132   1.399   1_655  A
C131        C962   1.396       .  A
C131        F138   1.358       .  S
C132        C133   1.418       .  A
C132        F137   1.358   1_455  S
C133        C134   1.404       .  A
C134        C961   1.399       .  A
C134        F135   1.358       .  S
C139        C144   1.398       .  A
C139        C972   1.395       .  A
C139        F146   1.358       .  S
C140        C141   1.408   1_455  A
C140        C971   1.395       .  A
C141        C974   1.399       .  A
C141        F148   1.358       .  S
C142        C143   1.404       .  A
C142        C973   1.399       .  A
C142        F147   1.358       .  S
C143        C144   1.419       .  A
C144        F145   1.358       .  S
C149        C150   1.398       .  A
C149        C154   1.405       .  A
C149        F156   1.358       .  S
C150        C151   1.411       .  A
C151        C152   1.399       .  A
C151        F158   1.358       .  S
C152        C153   1.404       .  A
C152        F157   1.358       .  S
C153        C154   1.420       .  A
C154        F155   1.357       .  S
C159        C160   1.397       .  A
C159        C164   1.397       .  A
C159        F166   1.358       .  S
C160        C161   1.412       .  A
C161        C162   1.402       .  A
C161        F376   1.358   1_554  S
C162        C163   1.403       .  A
C162        F167   1.357       .  S
C163        C164   1.419       .  A
C164        F165   1.358       .  S
F168        C369   1.358       .  S
C169        C174   1.399       .  A
C169       C1002   1.411       .  A
C169        F176   1.359       .  S
C170        C171   1.395       .  A
C170       C1001   1.411   1_455  A
C171       C1004   1.399   1_455  A
C171        F178   1.357       .  S
C172        C173   1.419       .  A
C172       C1003   1.399       .  A
C172       F1009   1.358       .  S
C173        C174   1.402       .  A
C174        F175   1.358       .  S
F177       C1004   1.358   1_455  S
C179        C184   1.402   1_655  A
C179       C1012   1.398       .  A
C179        F186   1.357       .  S
C180        C181   1.413       .  A
C180       C1011   1.398       .  A
C181       C1014   1.402       .  A
C181        F188   1.358       .  S
C182        C183   1.402       .  A
C182       C1013   1.402       .  A
C182        F187   1.358       .  S
C183        C184   1.418       .  A
C184        F185   1.358   1_455  S
C189        C190   1.420       .  A
C189        C194   1.402       .  A
C189        F196   1.358       .  S
C190        C191   1.403       .  A
C191        C192   1.402       .  A
C191        F198   1.357       .  S
C192        C193   1.420       .  A
C192        F197   1.358       .  S
C193        C194   1.404       .  A
C194        F195   1.358       .  S
C199        C200   1.416       .  A
C199        C204   1.399       .  A
C199        F206   1.359       .  S
C200       C1033   1.400   1_455  A
C201        C202   1.395       .  A
C201       C1032   1.400       .  A
C201        F208   1.357       .  S
C202        C203   1.415       .  A
C202        F207   1.359       .  S
C203       C1036   1.402       .  A
C204       C1035   1.402   1_455  A
C204        F205   1.357       .  S
Fe209       O225   2.021       .  S
Fe209       O215   2.143       .  S
Fe209       O222   2.097       .  S
Fe209       O214   2.003       .  S
Fe209       O220   1.910       .  S
Fe210       O213   2.020       .  S
Fe210       O217   2.145       .  S
Fe210       O221   2.041       .  S
Fe210       O226   2.139       .  S
Fe210       O220   1.909       .  S
Fe211       O229   2.140       .  S
Fe211       O216   2.010       .  S
Fe211       O223   2.025       .  S
Fe211       O212   2.150       .  S
Fe211       O220   1.917       .  S
O212        C219   1.284       .  A
O213        C227   1.262       .  A
O214        C219   1.250       .  A
O215        C218   1.284       .  A
O216        C228   1.261       .  A
O217        C230   1.291       .  A
C218        O223   1.263       .  A
C218        C391   1.488       .  S
C219        C408   1.474       .  S
O221        C224   1.261       .  A
O222        C224   1.276       .  A
C224        C361   1.492       .  S
O225        C230   1.266       .  A
O226        C228   1.285       .  A
C227        O229   1.285       .  A
C227        C371   1.488       .  S
C228        C378   1.471       .  S
C230        C401   1.499       .  S
Fe231       O237   2.008       .  S
Fe231       O244   2.020       .  S
Fe231       O652   2.130   1_545  S
Fe231       O242   1.915       .  S
Fe232       O235   2.135       .  S
Fe232       O239   2.040       .  S
Fe232       O243   2.150       .  S
Fe232       O248   2.021       .  S
Fe232       O242   1.909       .  S
Fe233       O251   2.013       .  S
Fe233       O238   2.143       .  S
Fe233       O245   2.153       .  S
Fe233       O650   2.025       .  S
Fe233       O242   1.919       .  S
O234       Fe649   2.025       .  S
O234        C241   1.263       .  A
O235        C249   1.284       .  A
O236       Fe647   2.130       .  S
O236        C241   1.282       .  A
O237        C240   1.251       .  A
O238        C250   1.286       .  A
C240        O245   1.285       .  A
C240        C328   1.475       .  S
C241        C341   1.484       .  S
O243        C246   1.292       .  A
O244        C246   1.267       .  A
C246        C321   1.498       .  S
O247        C252   1.272       .  A
O248        C250   1.263       .  A
C249        O251   1.261       .  A
C249        C348   1.467       .  S
C250        C358   1.481       .  S
C252        C368   1.476       .  S
Fe253       O269   2.095       .  S
Fe253       O259   2.003       .  S
Fe253       O266   2.013       .  S
Fe253       O258   2.136       .  S
Fe253       O264   1.916       .  S
Fe254       O257   2.132       .  S
Fe254       O261   2.039       .  S
Fe254       O265   2.149       .  S
Fe254       O270   2.026       .  S
Fe254       O264   1.902       .  S
Fe255       O273   2.014       .  S
Fe255       O260   2.121       .  S
Fe255       O267   2.155       .  S
Fe255       O256   2.022       .  S
Fe255       O264   1.923       .  S
O256        C263   1.259       .  A
O257        C271   1.287       .  A
O258        C263   1.282       .  A
O259        C262   1.251       .  A
O260        C272   1.280       .  A
O261        C274   1.260       .  A
C262        O267   1.284       .  A
C262        C411   1.477       .  S
C263        C351   1.485       .  S
O265        C268   1.292       .  A
O266        C268   1.266       .  A
C268        C398   1.499       .  S
O269        C274   1.273       .  A
O270        C272   1.263       .  A
C271        O273   1.265       .  A
C271        C338   1.471       .  S
C272        C301   1.479       .  S
C274        C311   1.476       .  S
Fe275       O291   2.025       .  S
Fe275       O697   2.134       .  S
Fe275       O280   2.006       .  S
Fe275       O286   1.917       .  S
Fe276       O279   2.023       .  S
Fe276       O283   2.146       .  S
Fe276       O292   2.144       .  S
Fe276       O286   1.906       .  S
Fe277       O295   2.130       .  S
Fe277       O282   2.019       .  S
Fe277       O289   2.022       .  S
Fe277       O278   2.154       .  S
Fe277       O286   1.922       .  S
O278        C285   1.285       .  A
O279        C293   1.262       .  A
O280        C285   1.253       .  A
O281       Fe691   2.134   1_545  S
O281        C284   1.282       .  A
O282        C294   1.264       .  A
O283        C296   1.290       .  A
C284        O705   1.259   1_545  A
C284        C381   1.482       .  S
C285        C331   1.477       .  S
O287        C290   1.262   1_554  A
O288        C290   1.275       .  A
O289        C700   1.259       .  A
C290        C298   1.484       .  S
O291        C296   1.267       .  A
O292        C294   1.287       .  A
C293        O295   1.283       .  A
C293        C308   1.487       .  S
C294        C388   1.480       .  S
C296        C318   1.498       .  S
C297        C298   1.402       .  A
C297        C302   1.397       .  A
C297        F304   1.358       .  S
C298        C299   1.416       .  A
C299        C300   1.401       .  A
C299        F306   1.358       .  S
C300        C301   1.400       .  A
C300        F305   1.358       .  S
C301        C302   1.412       .  A
C302        F303   1.359       .  S
C307        C308   1.418       .  A
C307        C312   1.396       .  A
C307        F314   1.358       .  S
C308        C309   1.405       .  A
C309        C310   1.402       .  A
C309        F316   1.358       .  S
C310        C311   1.412       .  A
C310        F315   1.358       .  S
C311        C312   1.397       .  A
C312        F313   1.358       .  S
C317        C734   1.418   1_545  A
C317        C322   1.403       .  A
C317        F324   1.358       .  S
C318        C733   1.418       .  A
C319        C320   1.403   1_554  A
C319        F326   1.358       .  S
C320        C737   1.418       .  A
C320        F325   1.358   1_556  S
C321        C736   1.419   1_545  A
C322        F323   1.358       .  S
C327       C1160   1.401   1_565  A
C327        F334   1.356       .  S
C328       C1159   1.401   1_445  A
C328        C745   1.414   1_556  A
C329        C744   1.414   1_554  A
C329        F336   1.359       .  S
C330       C1163   1.403   1_455  A
C330        F335   1.356       .  S
C331       C1162   1.403       .  A
C331        C748   1.413       .  A
C332        C747   1.413       .  A
C332        F333   1.359       .  S
C337        C338   1.410       .  A
C337       C1174   1.399       .  A
C337        F344   1.359       .  S
C338       C1171   1.396       .  A
C339       C1170   1.396       .  A
C339        C340   1.399   1_655  A
C339        F346   1.358       .  S
C340        C341   1.418       .  A
C340        F345   1.358   1_455  S
C341        C342   1.404       .  A
C342       C1169   1.399       .  A
C342        F343   1.358       .  S
C347       C1180   1.395       .  A
C347        C352   1.398       .  A
C347        F354   1.358       .  S
C348       C1179   1.395       .  A
C348        C349   1.409   1_455  A
C349       C1182   1.399       .  A
C349        F356   1.358       .  S
C350       C1181   1.399       .  A
C350        C351   1.405       .  A
C350        F355   1.358       .  S
C351        C352   1.420       .  A
C352        F353   1.358       .  S
C357        C358   1.399       .  A
C357        C362   1.405       .  A
C357        F364   1.357       .  S
C358        C359   1.412       .  A
C359        C360   1.399       .  A
C359        F366   1.358       .  S
C360        C361   1.404       .  A
C360        F365   1.358       .  S
C361        C362   1.420       .  A
C362        F363   1.357       .  S
C367        C368   1.397       .  A
C367        C372   1.397       .  A
C367        F374   1.358       .  S
C368        C369   1.411       .  A
C369        C370   1.402       .  A
C370        C371   1.404       .  A
C370        F375   1.357       .  S
C371        C372   1.419       .  A
C372        F373   1.358       .  S
C377       C1210   1.411       .  A
C377        C382   1.399       .  A
C377        F384   1.359       .  S
C378       C1209   1.411   1_455  A
C378        C379   1.396       .  A
C379       C1212   1.399   1_455  A
C379        F386   1.357       .  S
C380       C1211   1.399       .  A
C380        C381   1.418       .  A
C380       F1217   1.358       .  S
C381        C382   1.401       .  A
C382        F383   1.358       .  S
F385       C1212   1.358   1_455  S
C387       C1220   1.398       .  A
C387        C392   1.402   1_655  A
C387        F394   1.357       .  S
C388       C1219   1.398       .  A
C388        C389   1.413       .  A
C389       C1222   1.402       .  A
C389        F396   1.358       .  S
C390       C1221   1.402       .  A
C390        C391   1.403       .  A
C390        F395   1.358       .  S
C391        C392   1.418       .  A
C392        F393   1.358   1_455  S
C397        C398   1.421       .  A
C397        C402   1.402       .  A
C397        F404   1.358       .  S
C398        C399   1.403       .  A
C399        C400   1.402       .  A
C399        F406   1.357       .  S
C400        C401   1.420       .  A
C400        F405   1.358       .  S
C401        C402   1.404       .  A
C402        F403   1.358       .  S
C407        C408   1.416       .  A
C407        C412   1.399       .  A
C407        F414   1.359       .  S
C408       C1241   1.400   1_455  A
C409       C1240   1.400       .  A
C409        C410   1.395       .  A
C409        F416   1.357       .  S
C410        C411   1.416       .  A
C410        F415   1.359       .  S
C411       C1244   1.402       .  A
C412       C1243   1.402   1_455  A
C412        F413   1.357       .  S
Fe417       O433   2.021       .  S
Fe417       O423   2.143       .  S
Fe417       O430   2.098       .  S
Fe417       O422   2.003       .  S
Fe417       O428   1.910       .  S
Fe418       O421   2.019       .  S
Fe418       O425   2.145       .  S
Fe418       O429   2.041       .  S
Fe418       O434   2.139       .  S
Fe418       O428   1.909       .  S
Fe419       O437   2.141       .  S
Fe419       O424   2.009       .  S
Fe419       O431   2.025       .  S
Fe419       O420   2.150       .  S
Fe419       O428   1.917       .  S
O420        C427   1.284       .  A
O421        C435   1.262       .  A
O422        C427   1.250       .  A
O423        C426   1.284       .  A
O424        C436   1.261       .  A
O425        C438   1.291       .  A
C426        O431   1.263       .  A
C426        C599   1.488       .  S
C427        C616   1.474       .  S
O429        C432   1.261       .  A
O430        C432   1.276       .  A
C432        C569   1.492       .  S
O433        C438   1.266       .  A
O434        C436   1.285       .  A
C435        O437   1.285       .  A
C435        C579   1.487       .  S
C436        C586   1.471       .  S
C438        C609   1.499       .  S
Fe439       O663   2.091       .  S
Fe439       O445   2.008       .  S
Fe439       O452   2.020       .  S
Fe439       O450   1.915       .  S
Fe440       O443   2.135       .  S
Fe440       O447   2.040       .  S
Fe440       O451   2.150       .  S
Fe440       O456   2.021       .  S
Fe440       O450   1.909       .  S
Fe441       O459   2.013       .  S
Fe441       O446   2.144       .  S
Fe441       O453   2.153       .  S
Fe441       O450   1.919       .  S
O442        C449   1.263   1_545  A
O443        C457   1.284       .  A
O444        C449   1.282       .  A
O445        C448   1.251       .  A
O446        C458   1.286       .  A
O447        C668   1.260       .  A
C448        O453   1.285       .  A
C448        C536   1.475       .  S
C449        C549   1.484       .  S
O451        C454   1.292       .  A
O452        C454   1.267       .  A
C454        C529   1.497       .  S
O455       Fe647   2.091   1_554  S
O455        C460   1.272       .  A
O456        C458   1.263       .  A
C457        O459   1.261       .  A
C457        C556   1.467       .  S
C458        C566   1.481       .  S
C460        O655   1.260   1_554  A
C460        C576   1.476       .  S
Fe461       O477   2.095       .  S
Fe461       O467   2.003       .  S
Fe461       O474   2.013       .  S
Fe461       O466   2.135       .  S
Fe461       O472   1.916       .  S
Fe462       O465   2.133       .  S
Fe462       O469   2.039       .  S
Fe462       O473   2.150       .  S
Fe462       O478   2.026       .  S
Fe462       O472   1.902       .  S
Fe463       O481   2.015       .  S
Fe463       O468   2.121       .  S
Fe463       O475   2.155       .  S
Fe463       O464   2.022       .  S
Fe463       O472   1.923       .  S
O464        C471   1.259       .  A
O465        C479   1.287       .  A
O466        C471   1.282       .  A
O467        C470   1.251       .  A
O468        C480   1.280       .  A
O469        C482   1.260       .  A
C470        O475   1.284       .  A
C470        C619   1.477       .  S
C471        C559   1.484       .  S
O473        C476   1.292       .  A
O474        C476   1.266       .  A
C476        C606   1.499       .  S
O477        C482   1.273       .  A
O478        C480   1.263       .  A
C479        O481   1.265       .  A
C479        C546   1.471       .  S
C480        C509   1.479       .  S
C482        C519   1.476       .  S
Fe483       O499   2.025       .  S
Fe483       O704   2.097   1_554  S
Fe483       O488   2.006       .  S
Fe483       O494   1.916       .  S
Fe484       O487   2.024       .  S
Fe484       O491   2.147       .  S
Fe484       O703   2.037       .  S
Fe484       O500   2.143       .  S
Fe484       O494   1.906       .  S
Fe485       O503   2.130       .  S
Fe485       O490   2.019       .  S
Fe485       O497   2.021       .  S
Fe485       O486   2.154       .  S
Fe485       O494   1.922       .  S
O486        C493   1.284       .  A
O487        C501   1.262       .  A
O488        C493   1.253       .  A
O489        C492   1.282       .  A
O490        C502   1.264       .  A
O491        C504   1.290       .  A
C492        C589   1.481       .  S
C493        C539   1.476       .  S
O495       Fe692   2.037       .  S
O495        C498   1.262       .  A
O496       Fe691   2.096       .  S
O496        C498   1.275       .  A
C498        C506   1.484       .  S
O499        C504   1.267       .  A
O500        C502   1.287       .  A
C501        O503   1.283       .  A
C501        C516   1.486       .  S
C502        C596   1.479       .  S
C504        C526   1.499       .  S
C505        C506   1.402       .  A
C505        C510   1.397       .  A
C505        F512   1.358       .  S
C506        C507   1.416       .  A
C507        C508   1.401       .  A
C507        F514   1.358       .  S
C508        C509   1.400       .  A
C508        F513   1.358       .  S
C509        C510   1.412       .  A
C510        F511   1.359       .  S
C515        C516   1.418       .  A
C515        C520   1.396       .  A
C515        F522   1.358       .  S
C516        C517   1.405       .  A
C517        C518   1.402       .  A
C517        F524   1.358       .  S
C518        C519   1.412       .  A
C518        F523   1.358       .  S
C519        C520   1.397       .  A
C520        F521   1.358       .  S
C525        C530   1.403       .  A
C525        F532   1.358       .  S
C526        C735   1.405       .  A
C527        C734   1.404       .  A
C527        C528   1.403       .  A
C527        F534   1.358       .  S
C528        F533   1.358       .  S
C529        C738   1.404       .  A
C530        C737   1.404       .  A
C530        F531   1.358       .  S
C535       C1368   1.401       .  A
C535        C748   1.397       .  A
C535        F542   1.356       .  S
C536       C1367   1.401   1_455  A
C537        C746   1.399       .  A
C537        F544   1.359       .  S
C538        C745   1.400       .  A
C538       C1371   1.403   1_445  A
C538        F543   1.356       .  S
C539       C1370   1.403   1_565  A
C540        C743   1.397       .  A
C540        F541   1.359       .  S
C545        C546   1.410       .  A
C545       C1382   1.399       .  A
C545        F552   1.359       .  S
C546       C1379   1.396       .  A
C547       C1378   1.396       .  A
C547        C548   1.399   1_655  A
C547        F554   1.358       .  S
C548        C549   1.418       .  A
C548        F553   1.358   1_455  S
C549        C550   1.404       .  A
C550       C1377   1.399       .  A
C550        F551   1.358       .  S
C555       C1388   1.395       .  A
C555        C560   1.398       .  A
C555        F562   1.358       .  S
C556       C1387   1.395       .  A
C556        C557   1.409   1_455  A
C557       C1390   1.399       .  A
C557        F564   1.358       .  S
C558       C1389   1.399       .  A
C558        C559   1.404       .  A
C558        F563   1.358       .  S
C559        C560   1.419       .  A
C560        F561   1.358       .  S
C565        C566   1.399       .  A
C565        C570   1.405       .  A
C565        F572   1.357       .  S
C566        C567   1.412       .  A
C567        C568   1.399       .  A
C567        F574   1.359       .  S
C568        C569   1.404       .  A
C568        F573   1.358       .  S
C569        C570   1.420       .  A
C570        F571   1.357       .  S
C575        C576   1.397       .  A
C575        C580   1.397       .  A
C575        F582   1.358       .  S
C576        C577   1.412       .  A
C577        C578   1.402       .  A
C577        F792   1.358   1_554  S
C578        C579   1.404       .  A
C578        F583   1.357       .  S
C579        C580   1.419       .  A
C580        F581   1.358       .  S
F584        C785   1.358       .  S
C585       C1418   1.412       .  A
C585        C590   1.399       .  A
C585        F592   1.359       .  S
C586       C1417   1.412   1_455  A
C586        C587   1.396       .  A
C587       C1420   1.399   1_455  A
C587        F594   1.357       .  S
C588       C1419   1.399       .  A
C588        C589   1.418       .  A
C588       F1425   1.358       .  S
C589        C590   1.401       .  A
C590        F591   1.358       .  S
F593       C1420   1.358   1_455  S
C595       C1428   1.398       .  A
C595        C600   1.402   1_655  A
C595        F602   1.357       .  S
C596       C1427   1.398       .  A
C596        C597   1.412       .  A
C597       C1430   1.402       .  A
C597        F604   1.358       .  S
C598       C1429   1.402       .  A
C598        C599   1.402       .  A
C598        F603   1.358       .  S
C599        C600   1.418       .  A
C600        F601   1.358   1_455  S
C605        C606   1.421       .  A
C605        C610   1.402       .  A
C605        F612   1.358       .  S
C606        C607   1.403       .  A
C607        C608   1.402       .  A
C607        F614   1.357       .  S
C608        C609   1.420       .  A
C608        F613   1.358       .  S
C609        C610   1.404       .  A
C610        F611   1.358       .  S
C615        C616   1.416       .  A
C615        C620   1.399       .  A
C615        F622   1.359       .  S
C616       C1449   1.400   1_455  A
C617       C1448   1.400       .  A
C617        C618   1.395       .  A
C617        F624   1.357       .  S
C618        C619   1.415       .  A
C618        F623   1.359       .  S
C619       C1452   1.402       .  A
C620       C1451   1.402   1_455  A
C620        F621   1.357       .  S
Fe625       O641   2.021       .  S
Fe625       O631   2.143       .  S
Fe625       O638   2.097       .  S
Fe625       O630   2.003       .  S
Fe625       O636   1.910       .  S
Fe626       O629   2.020       .  S
Fe626       O633   2.144       .  S
Fe626       O637   2.041       .  S
Fe626       O642   2.139       .  S
Fe626       O636   1.909       .  S
Fe627       O645   2.139       .  S
Fe627       O632   2.010       .  S
Fe627       O639   2.024       .  S
Fe627       O628   2.150       .  S
Fe627       O636   1.918       .  S
O628        C635   1.284       .  A
O629        C643   1.262       .  A
O630        C635   1.250       .  A
O631        C634   1.284       .  A
O632        C644   1.261       .  A
O633        C646   1.291       .  A
C634        O639   1.262       .  A
C634        C807   1.488       .  S
C635        C824   1.474       .  S
O637        C640   1.261       .  A
O638        C640   1.276       .  A
C640        C777   1.493       .  S
O641        C646   1.266       .  A
O642        C644   1.285       .  A
C643        O645   1.285       .  A
C643        C787   1.487       .  S
C644        C794   1.470       .  S
C646        C817   1.499       .  S
Fe647       O653   2.008       .  S
Fe647       O660   2.020       .  S
Fe647       O658   1.916       .  S
Fe648       O651   2.134       .  S
Fe648       O655   2.041       .  S
Fe648       O659   2.150       .  S
Fe648       O664   2.022       .  S
Fe648       O658   1.909       .  S
Fe649       O667   2.013       .  S
Fe649       O654   2.142       .  S
Fe649       O661   2.153       .  S
Fe649       O658   1.919       .  S
O650        C657   1.263   1_545  A
O651        C665   1.284       .  A
O652        C657   1.282       .  A
O653        C656   1.251       .  A
O654        C666   1.286       .  A
C656        O661   1.285       .  A
C656        C744   1.475       .  S
C657        C757   1.484       .  S
O659        C662   1.292       .  A
O660        C662   1.267       .  A
C662        C737   1.497       .  S
O663        C668   1.272       .  A
O664        C666   1.263       .  A
C665        O667   1.261       .  A
C665        C764   1.467       .  S
C666        C774   1.480       .  S
C668        C784   1.476       .  S
Fe669       O685   2.095       .  S
Fe669       O675   2.003       .  S
Fe669       O682   2.014       .  S
Fe669       O674   2.135       .  S
Fe669       O680   1.916       .  S
Fe670       O673   2.132       .  S
Fe670       O677   2.040       .  S
Fe670       O681   2.149       .  S
Fe670       O686   2.026       .  S
Fe670       O680   1.902       .  S
Fe671       O689   2.015       .  S
Fe671       O676   2.122       .  S
Fe671       O683   2.155       .  S
Fe671       O672   2.022       .  S
Fe671       O680   1.923       .  S
O672        C679   1.259       .  A
O673        C687   1.286       .  A
O674        C679   1.282       .  A
O675        C678   1.251       .  A
O676        C688   1.280       .  A
O677        C690   1.260       .  A
C678        O683   1.284       .  A
C678        C827   1.478       .  S
C679        C767   1.485       .  S
O681        C684   1.292       .  A
O682        C684   1.266       .  A
C684        C814   1.499       .  S
O685        C690   1.273       .  A
O686        C688   1.263       .  A
C687        O689   1.265       .  A
C687        C754   1.471       .  S
C688        C717   1.479       .  S
C690        C727   1.476       .  S
Fe691       O707   2.025       .  S
Fe691       O696   2.006       .  S
Fe691       O702   1.917       .  S
Fe692       O695   2.023       .  S
Fe692       O699   2.146       .  S
Fe692       O708   2.144       .  S
Fe692       O702   1.906       .  S
Fe693       O711   2.130       .  S
Fe693       O698   2.019       .  S
Fe693       O705   2.021       .  S
Fe693       O694   2.154       .  S
Fe693       O702   1.922       .  S
O694        C701   1.284       .  A
O695        C709   1.262       .  A
O696        C701   1.253       .  A
O697        C700   1.282       .  A
O698        C710   1.264       .  A
O699        C712   1.290       .  A
C700        C797   1.483       .  S
C701        C747   1.476       .  S
O703        C706   1.262   1_554  A
O704        C706   1.275       .  A
C706        C714   1.484       .  S
O707        C712   1.267       .  A
O708        C710   1.287       .  A
C709        O711   1.283       .  A
C709        C724   1.486       .  S
C710        C804   1.480       .  S
C712        C734   1.497       .  S
C713        C714   1.402       .  A
C713        C718   1.397       .  A
C713        F720   1.358       .  S
C714        C715   1.416       .  A
C715        C716   1.401       .  A
C715        F722   1.358       .  S
C716        C717   1.400       .  A
C716        F721   1.358       .  S
C717        C718   1.413       .  A
C718        F719   1.359       .  S
C723        C724   1.418       .  A
C723        C728   1.396       .  A
C723        F730   1.358       .  S
C724        C725   1.405       .  A
C725        C726   1.402       .  A
C725        F732   1.358       .  S
C726        C727   1.412       .  A
C726        F731   1.358       .  S
C727        C728   1.397       .  A
C728        F729   1.358       .  S
C733        C738   1.403       .  A
C733        F740   1.358       .  S
C735        C736   1.403   1_554  A
C735        F742   1.358       .  S
C736        F741   1.358   1_556  S
C738        F739   1.358       .  S
C743       C1576   1.401       .  A
C743        F750   1.356       .  S
C744       C1575   1.401   1_455  A
C745        F752   1.359       .  S
C746       C1579   1.403   1_445  A
C746        F751   1.356       .  S
C747       C1578   1.403   1_565  A
C748        F749   1.359       .  S
C753        C754   1.410       .  A
C753       C1590   1.399       .  A
C753        F760   1.359       .  S
C754       C1587   1.396       .  A
C755       C1586   1.396       .  A
C755        C756   1.399   1_655  A
C755        F762   1.358       .  S
C756        C757   1.418       .  A
C756        F761   1.358   1_455  S
C757        C758   1.404       .  A
C758       C1585   1.399       .  A
C758        F759   1.358       .  S
C763       C1596   1.395       .  A
C763        C768   1.398       .  A
C763        F770   1.358       .  S
C764       C1595   1.395       .  A
C764        C765   1.408   1_455  A
C765       C1598   1.399       .  A
C765        F772   1.358       .  S
C766       C1597   1.399       .  A
C766        C767   1.405       .  A
C766        F771   1.358       .  S
C767        C768   1.419       .  A
C768        F769   1.358       .  S
C773        C774   1.398       .  A
C773        C778   1.405       .  A
C773        F780   1.358       .  S
C774        C775   1.411       .  A
C775        C776   1.399       .  A
C775        F782   1.358       .  S
C776        C777   1.404       .  A
C776        F781   1.358       .  S
C777        C778   1.420       .  A
C778        F779   1.357       .  S
C783        C784   1.397       .  A
C783        C788   1.397       .  A
C783        F790   1.358       .  S
C784        C785   1.411       .  A
C785        C786   1.402       .  A
C786        C787   1.404       .  A
C786        F791   1.357       .  S
C787        C788   1.419       .  A
C788        F789   1.358       .  S
C793       C1626   1.411       .  A
C793        C798   1.399       .  A
C793        F800   1.359       .  S
C794       C1625   1.411   1_455  A
C794        C795   1.395       .  A
C795       C1628   1.399   1_455  A
C795        F802   1.357       .  S
C796       C1627   1.399       .  A
C796        C797   1.419       .  A
C796       F1633   1.358       .  S
C797        C798   1.402       .  A
C798        F799   1.358       .  S
F801       C1628   1.358   1_455  S
C803       C1636   1.398       .  A
C803        C808   1.402   1_655  A
C803        F810   1.357       .  S
C804       C1635   1.398       .  A
C804        C805   1.413       .  A
C805       C1638   1.402       .  A
C805        F812   1.358       .  S
C806       C1637   1.402       .  A
C806        C807   1.403       .  A
C806        F811   1.358       .  S
C807        C808   1.418       .  A
C808        F809   1.358   1_455  S
C813        C814   1.420       .  A
C813        C818   1.402       .  A
C813        F820   1.358       .  S
C814        C815   1.403       .  A
C815        C816   1.402       .  A
C815        F822   1.357       .  S
C816        C817   1.420       .  A
C816        F821   1.358       .  S
C817        C818   1.404       .  A
C818        F819   1.358       .  S
C823        C824   1.416       .  A
C823        C828   1.399       .  A
C823        F830   1.359       .  S
C824       C1657   1.400   1_455  A
C825       C1656   1.400       .  A
C825        C826   1.395       .  A
C825        F832   1.357       .  S
C826        C827   1.415       .  A
C826        F831   1.359       .  S
C827       C1660   1.402       .  A
C828       C1659   1.402   1_455  A
C828        F829   1.357       .  S
Fe833       O849   2.021       .  S
Fe833       O839   2.143       .  S
Fe833       O846   2.097       .  S
Fe833       O838   2.003       .  S
Fe833       O844   1.910       .  S
Fe834       O837   2.020       .  S
Fe834       O841   2.145       .  S
Fe834       O845   2.041       .  S
Fe834       O850   2.139       .  S
Fe834       O844   1.909       .  S
Fe835       O853   2.139       .  S
Fe835       O840   2.010       .  S
Fe835       O847   2.024       .  S
Fe835       O836   2.150       .  S
Fe835       O844   1.917       .  S
O836        C843   1.284       .  A
O837        C851   1.262       .  A
O838        C843   1.250       .  A
O839        C842   1.284       .  A
O840        C852   1.261       .  A
O841        C854   1.291       .  A
C842        O847   1.262       .  A
C842       C1015   1.488       .  S
C843       C1032   1.474       .  S
O845        C848   1.261       .  A
O846        C848   1.276       .  A
C848        C985   1.493       .  S
O849        C854   1.266       .  A
O850        C852   1.285       .  A
C851        O853   1.285       .  A
C851        C995   1.487       .  S
C852       C1002   1.470       .  S
C854       C1025   1.499       .  S
Fe855      O1079   2.091       .  S
Fe855       O861   2.008       .  S
Fe855       O868   2.020       .  S
Fe855      O1276   2.130   1_545  S
Fe855       O866   1.916       .  S
Fe856       O859   2.134       .  S
Fe856       O863   2.041       .  S
Fe856       O867   2.150       .  S
Fe856       O872   2.021       .  S
Fe856       O866   1.909       .  S
Fe857       O875   2.013       .  S
Fe857       O862   2.143       .  S
Fe857       O869   2.153       .  S
Fe857      O1274   2.025       .  S
Fe857       O866   1.919       .  S
O858      Fe1273   2.025       .  S
O858        C865   1.263       .  A
O859        C873   1.284       .  A
O860      Fe1271   2.130       .  S
O860        C865   1.282       .  A
O861        C864   1.251       .  A
O862        C874   1.286       .  A
O863       C1084   1.260       .  A
C864        O869   1.285       .  A
C864        C952   1.475       .  S
C865        C965   1.484       .  S
O867        C870   1.292       .  A
O868        C870   1.267       .  A
C870        C945   1.496       .  S
O871      Fe1063   2.091   1_554  S
O871        C876   1.272       .  A
O872        C874   1.263       .  A
C873        O875   1.261       .  A
C873        C972   1.467       .  S
C874        C982   1.480       .  S
C876       O1071   1.260   1_554  A
C876        C992   1.476       .  S
Fe877       O893   2.095       .  S
Fe877       O883   2.003       .  S
Fe877       O890   2.013       .  S
Fe877       O882   2.135       .  S
Fe877       O888   1.916       .  S
Fe878       O881   2.133       .  S
Fe878       O885   2.040       .  S
Fe878       O889   2.150       .  S
Fe878       O894   2.026       .  S
Fe878       O888   1.902       .  S
Fe879       O897   2.015       .  S
Fe879       O884   2.122       .  S
Fe879       O891   2.155       .  S
Fe879       O880   2.023       .  S
Fe879       O888   1.923       .  S
O880        C887   1.259       .  A
O881        C895   1.287       .  A
O882        C887   1.282       .  A
O883        C886   1.251       .  A
O884        C896   1.280       .  A
O885        C898   1.260       .  A
C886        O891   1.284       .  A
C886       C1035   1.478       .  S
C887        C975   1.485       .  S
O889        C892   1.292       .  A
O890        C892   1.266       .  A
C892       C1022   1.499       .  S
O893        C898   1.273       .  A
O894        C896   1.263       .  A
C895        O897   1.265       .  A
C895        C962   1.471       .  S
C896        C925   1.479       .  S
C898        C935   1.476       .  S
Fe899       O915   2.025       .  S
Fe899      O1321   2.134       .  S
Fe899      O1120   2.096   1_554  S
Fe899       O904   2.007       .  S
Fe899       O910   1.917       .  S
Fe900       O903   2.024       .  S
Fe900       O907   2.146       .  S
Fe900      O1119   2.037       .  S
Fe900       O916   2.143       .  S
Fe900       O910   1.906       .  S
Fe901       O919   2.130       .  S
Fe901       O906   2.019       .  S
Fe901       O913   2.021       .  S
Fe901       O902   2.154       .  S
Fe901       O910   1.922       .  S
O902        C909   1.284       .  A
O903        C917   1.262       .  A
O904        C909   1.253       .  A
O905      Fe1315   2.134   1_545  S
O905        C908   1.282       .  A
O906        C918   1.264       .  A
O907        C920   1.290       .  A
C908       O1329   1.260   1_545  A
C908       C1005   1.483       .  S
C909        C955   1.476       .  S
O911      Fe1108   2.036       .  S
O911        C914   1.262       .  A
O912      Fe1107   2.097       .  S
O912        C914   1.275       .  A
O913       C1324   1.260       .  A
C914        C922   1.483       .  S
O915        C920   1.267       .  A
O916        C918   1.287       .  A
C917        O919   1.283       .  A
C917        C932   1.486       .  S
C918       C1012   1.480       .  S
C920        C942   1.498       .  S
C921        C922   1.402       .  A
C921        C926   1.397       .  A
C921        F928   1.358       .  S
C922        C923   1.416       .  A
C923        C924   1.401       .  A
C923        F930   1.358       .  S
C924        C925   1.400       .  A
C924        F929   1.358       .  S
C925        C926   1.413       .  A
C926        F927   1.359       .  S
C931        C932   1.418       .  A
C931        C936   1.396       .  A
C931        F938   1.358       .  S
C932        C933   1.404       .  A
C933        C934   1.403       .  A
C933        F940   1.358       .  S
C934        C935   1.412       .  A
C934        F939   1.358       .  S
C935        C936   1.397       .  A
C936        F937   1.358       .  S
C941       C1358   1.418   1_546  A
C941        C946   1.403       .  A
C941        F948   1.358       .  S
C942       C1357   1.418   1_554  A
C942       C1151   1.404       .  A
C943       C1150   1.404       .  A
C943        C944   1.403       .  A
C943        F950   1.358       .  S
C944       C1361   1.419       .  A
C944        F949   1.358       .  S
C945       C1360   1.418   1_545  A
C945       C1154   1.404       .  A
C946       C1153   1.404       .  A
C946        F947   1.358       .  S
C951       C1164   1.397       .  A
C951        F958   1.356       .  S
C952       C1369   1.414       .  A
C953       C1368   1.415       .  A
C953       C1162   1.399       .  A
C953        F960   1.359       .  S
C954       C1161   1.399       .  A
C954        F959   1.356       .  S
C955       C1372   1.413   1_554  A
C956       C1159   1.397       .  A
C956       C1371   1.413   1_556  A
C956        F957   1.359       .  S
C961        C962   1.410   1_455  A
C961        F968   1.359       .  S
C963        C964   1.399       .  A
C963        F970   1.358       .  S
C964        C965   1.418       .  A
C964        F969   1.358       .  S
C965        C966   1.404       .  A
C966        F967   1.358       .  S
C971        C976   1.398   1_455  A
C971        F978   1.358       .  S
C972        C973   1.408       .  A
C973        F980   1.358       .  S
C974        C975   1.405       .  A
C974        F979   1.358       .  S
C975        C976   1.419       .  A
C976        F977   1.358       .  S
C981        C982   1.398       .  A
C981        C986   1.405       .  A
C981        F988   1.357       .  S
C982        C983   1.411       .  A
C983        C984   1.399       .  A
C983        F990   1.358       .  S
C984        C985   1.404       .  A
C984        F989   1.358       .  S
C985        C986   1.420       .  A
C986        F987   1.357       .  S
C991        C992   1.397       .  A
C991        C996   1.397       .  A
C991        F998   1.358       .  S
C992        C993   1.412       .  A
C993        C994   1.402       .  A
C993       F1208   1.358   1_554  S
C994        C995   1.404       .  A
C994        F999   1.357       .  S
C995        C996   1.419       .  A
C996        F997   1.358       .  S
F1000      C1201   1.358       .  S
C1001      C1006   1.399       .  A
C1001      F1008   1.359       .  S
C1002      C1003   1.396       .  A
C1003      F1010   1.357       .  S
C1004      C1005   1.419       .  A
C1005      C1006   1.402       .  A
C1006      F1007   1.358       .  S
C1011      C1016   1.402       .  A
C1011      F1018   1.357       .  S
C1012      C1013   1.413   1_655  A
C1013      F1020   1.358       .  S
C1014      C1015   1.402       .  A
C1014      F1019   1.358       .  S
C1015      C1016   1.418       .  A
C1016      F1017   1.358       .  S
C1021      C1022   1.420       .  A
C1021      C1026   1.402       .  A
C1021      F1028   1.358       .  S
C1022      C1023   1.403       .  A
C1023      C1024   1.402       .  A
C1023      F1030   1.357       .  S
C1024      C1025   1.420       .  A
C1024      F1029   1.358       .  S
C1025      C1026   1.404       .  A
C1026      F1027   1.358       .  S
C1031      C1032   1.416       .  A
C1031      C1036   1.399       .  A
C1031      F1038   1.359       .  S
C1033      C1034   1.395       .  A
C1033      F1040   1.357       .  S
C1034      C1035   1.415       .  A
C1034      F1039   1.359       .  S
C1036      F1037   1.357       .  S
Fe1041     O1057   2.021       .  S
Fe1041     O1047   2.143       .  S
Fe1041     O1054   2.097       .  S
Fe1041     O1046   2.003       .  S
Fe1041     O1052   1.910       .  S
Fe1042     O1045   2.020       .  S
Fe1042     O1049   2.144       .  S
Fe1042     O1053   2.041       .  S
Fe1042     O1058   2.139       .  S
Fe1042     O1052   1.909       .  S
Fe1043     O1061   2.140       .  S
Fe1043     O1048   2.010       .  S
Fe1043     O1055   2.025       .  S
Fe1043     O1044   2.149       .  S
Fe1043     O1052   1.917       .  S
O1044      C1051   1.284       .  A
O1045      C1059   1.262       .  A
O1046      C1051   1.250       .  A
O1047      C1050   1.284       .  A
O1048      C1060   1.261       .  A
O1049      C1062   1.291       .  A
C1050      O1055   1.263       .  A
C1050      C1223   1.488       .  S
C1051      C1240   1.474       .  S
O1053      C1056   1.261       .  A
O1054      C1056   1.276       .  A
C1056      C1193   1.493       .  S
O1057      C1062   1.266       .  A
O1058      C1060   1.285       .  A
C1059      O1061   1.285       .  A
C1059      C1203   1.487       .  S
C1060      C1210   1.470       .  S
C1062      C1233   1.499       .  S
Fe1063     O1069   2.008       .  S
Fe1063     O1076   2.020       .  S
Fe1063     O1484   2.130   1_545  S
Fe1063     O1074   1.915       .  S
Fe1064     O1067   2.134       .  S
Fe1064     O1071   2.040       .  S
Fe1064     O1075   2.150       .  S
Fe1064     O1080   2.021       .  S
Fe1064     O1074   1.909       .  S
Fe1065     O1083   2.013       .  S
Fe1065     O1070   2.143       .  S
Fe1065     O1077   2.153       .  S
Fe1065     O1482   2.025       .  S
Fe1065     O1074   1.919       .  S
O1066     Fe1481   2.025       .  S
O1066      C1073   1.263       .  A
O1067      C1081   1.284       .  A
O1068     Fe1479   2.130       .  S
O1068      C1073   1.282       .  A
O1069      C1072   1.251       .  A
O1070      C1082   1.286       .  A
C1072      O1077   1.285       .  A
C1072      C1160   1.475       .  S
C1073      C1173   1.484       .  S
O1075      C1078   1.292       .  A
O1076      C1078   1.267       .  A
C1078      C1153   1.497       .  S
O1079      C1084   1.272       .  A
O1080      C1082   1.263       .  A
C1081      O1083   1.261       .  A
C1081      C1180   1.467       .  S
C1082      C1190   1.481       .  S
C1084      C1200   1.476       .  S
Fe1085     O1101   2.095       .  S
Fe1085     O1091   2.003       .  S
Fe1085     O1098   2.013       .  S
Fe1085     O1090   2.136       .  S
Fe1085     O1096   1.916       .  S
Fe1086     O1089   2.133       .  S
Fe1086     O1093   2.039       .  S
Fe1086     O1097   2.150       .  S
Fe1086     O1102   2.026       .  S
Fe1086     O1096   1.902       .  S
Fe1087     O1105   2.014       .  S
Fe1087     O1092   2.121       .  S
Fe1087     O1099   2.155       .  S
Fe1087     O1088   2.022       .  S
Fe1087     O1096   1.922       .  S
O1088      C1095   1.259       .  A
O1089      C1103   1.287       .  A
O1090      C1095   1.282       .  A
O1091      C1094   1.251       .  A
O1092      C1104   1.280       .  A
O1093      C1106   1.259       .  A
C1094      O1099   1.284       .  A
C1094      C1243   1.477       .  S
C1095      C1183   1.485       .  S
O1097      C1100   1.292       .  A
O1098      C1100   1.266       .  A
C1100      C1230   1.499       .  S
O1101      C1106   1.273       .  A
O1102      C1104   1.263       .  A
C1103      O1105   1.265       .  A
C1103      C1170   1.471       .  S
C1104      C1133   1.478       .  S
C1106      C1143   1.476       .  S
Fe1107     O1123   2.026       .  S
Fe1107     O1529   2.134       .  S
Fe1107     O1112   2.006       .  S
Fe1107     O1118   1.917       .  S
Fe1108     O1111   2.023       .  S
Fe1108     O1115   2.146       .  S
Fe1108     O1124   2.143       .  S
Fe1108     O1118   1.906       .  S
Fe1109     O1127   2.130       .  S
Fe1109     O1114   2.019       .  S
Fe1109     O1121   2.021       .  S
Fe1109     O1110   2.154       .  S
Fe1109     O1118   1.922       .  S
O1110      C1117   1.285       .  A
O1111      C1125   1.262       .  A
O1112      C1117   1.253       .  A
O1113     Fe1523   2.134   1_545  S
O1113      C1116   1.282       .  A
O1114      C1126   1.264       .  A
O1115      C1128   1.290       .  A
C1116      O1537   1.260   1_545  A
C1116      C1213   1.482       .  S
C1117      C1163   1.477       .  S
O1119      C1122   1.262   1_554  A
O1120      C1122   1.275       .  A
O1121      C1532   1.259       .  A
C1122      C1130   1.484       .  S
O1123      C1128   1.267       .  A
O1124      C1126   1.287       .  A
C1125      O1127   1.283       .  A
C1125      C1140   1.487       .  S
C1126      C1220   1.479       .  S
C1128      C1150   1.498       .  S
C1129      C1130   1.403       .  A
C1129      C1134   1.397       .  A
C1129      F1136   1.358       .  S
C1130      C1131   1.416       .  A
C1131      C1132   1.401       .  A
C1131      F1138   1.358       .  S
C1132      C1133   1.400       .  A
C1132      F1137   1.358       .  S
C1133      C1134   1.412       .  A
C1134      F1135   1.359       .  S
C1139      C1140   1.418       .  A
C1139      C1144   1.396       .  A
C1139      F1146   1.358       .  S
C1140      C1141   1.405       .  A
C1141      C1142   1.402       .  A
C1141      F1148   1.358       .  S
C1142      C1143   1.412       .  A
C1142      F1147   1.358       .  S
C1143      C1144   1.397       .  A
C1144      F1145   1.358       .  S
C1149      C1566   1.418   1_545  A
C1149      C1154   1.403       .  A
C1149      F1156   1.358       .  S
C1150      C1565   1.418       .  A
C1151      C1152   1.403   1_554  A
C1151      F1158   1.358       .  S
C1152      C1569   1.418       .  A
C1152      F1157   1.358   1_556  S
C1153      C1568   1.419   1_545  A
C1154      F1155   1.358       .  S
C1159      F1166   1.356       .  S
C1160      C1577   1.414   1_556  A
C1161      C1576   1.414   1_554  A
C1161      F1168   1.359       .  S
C1162      F1167   1.356       .  S
C1163      C1580   1.413       .  A
C1164      C1579   1.413       .  A
C1164      F1165   1.359       .  S
C1169      C1170   1.410   1_455  A
C1169      F1176   1.359       .  S
C1171      C1172   1.399       .  A
C1171      F1178   1.358       .  S
C1172      C1173   1.418       .  A
C1172      F1177   1.358       .  S
C1173      C1174   1.404       .  A
C1174      F1175   1.358       .  S
C1179      C1184   1.398   1_455  A
C1179      F1186   1.358       .  S
C1180      C1181   1.408       .  A
C1181      F1188   1.358       .  S
C1182      C1183   1.404       .  A
C1182      F1187   1.358       .  S
C1183      C1184   1.420       .  A
C1184      F1185   1.358       .  S
C1189      C1190   1.398       .  A
C1189      C1194   1.405       .  A
C1189      F1196   1.357       .  S
C1190      C1191   1.411       .  A
C1191      C1192   1.399       .  A
C1191      F1198   1.358       .  S
C1192      C1193   1.404       .  A
C1192      F1197   1.358       .  S
C1193      C1194   1.420       .  A
C1194      F1195   1.357       .  S
C1199      C1200   1.397       .  A
C1199      C1204   1.397       .  A
C1199      F1206   1.358       .  S
C1200      C1201   1.412       .  A
C1201      C1202   1.402       .  A
C1202      C1203   1.404       .  A
C1202      F1207   1.357       .  S
C1203      C1204   1.419       .  A
C1204      F1205   1.358       .  S
C1209      C1214   1.399       .  A
C1209      F1216   1.359       .  S
C1210      C1211   1.396       .  A
C1211      F1218   1.357       .  S
C1212      C1213   1.418       .  A
C1213      C1214   1.401       .  A
C1214      F1215   1.358       .  S
C1219      C1224   1.402       .  A
C1219      F1226   1.357       .  S
C1220      C1221   1.412   1_655  A
C1221      F1228   1.358       .  S
C1222      C1223   1.403       .  A
C1222      F1227   1.358       .  S
C1223      C1224   1.418       .  A
C1224      F1225   1.358       .  S
C1229      C1230   1.421       .  A
C1229      C1234   1.402       .  A
C1229      F1236   1.358       .  S
C1230      C1231   1.403       .  A
C1231      C1232   1.402       .  A
C1231      F1238   1.357       .  S
C1232      C1233   1.420       .  A
C1232      F1237   1.358       .  S
C1233      C1234   1.404       .  A
C1234      F1235   1.358       .  S
C1239      C1240   1.416       .  A
C1239      C1244   1.399       .  A
C1239      F1246   1.359       .  S
C1241      C1242   1.395       .  A
C1241      F1248   1.357       .  S
C1242      C1243   1.415       .  A
C1242      F1247   1.359       .  S
C1244      F1245   1.357       .  S
Fe1249     O1265   2.021       .  S
Fe1249     O1255   2.143       .  S
Fe1249     O1262   2.098       .  S
Fe1249     O1254   2.003       .  S
Fe1249     O1260   1.910       .  S
Fe1250     O1253   2.019       .  S
Fe1250     O1257   2.145       .  S
Fe1250     O1261   2.041       .  S
Fe1250     O1266   2.140       .  S
Fe1250     O1260   1.909       .  S
Fe1251     O1269   2.140       .  S
Fe1251     O1256   2.009       .  S
Fe1251     O1263   2.025       .  S
Fe1251     O1252   2.150       .  S
Fe1251     O1260   1.917       .  S
O1252      C1259   1.284       .  A
O1253      C1267   1.262       .  A
O1254      C1259   1.250       .  A
O1255      C1258   1.284       .  A
O1256      C1268   1.261       .  A
O1257      C1270   1.291       .  A
C1258      O1263   1.263       .  A
C1258      C1431   1.488       .  S
C1259      C1448   1.474       .  S
O1261      C1264   1.261       .  A
O1262      C1264   1.276       .  A
C1264      C1401   1.492       .  S
O1265      C1270   1.266       .  A
O1266      C1268   1.285       .  A
C1267      O1269   1.285       .  A
C1267      C1411   1.488       .  S
C1268      C1418   1.471       .  S
C1270      C1441   1.499       .  S
Fe1271     O1495   2.091       .  S
Fe1271     O1277   2.008       .  S
Fe1271     O1284   2.020       .  S
Fe1271     O1282   1.915       .  S
Fe1272     O1275   2.135       .  S
Fe1272     O1279   2.040       .  S
Fe1272     O1283   2.150       .  S
Fe1272     O1288   2.021       .  S
Fe1272     O1282   1.908       .  S
Fe1273     O1291   2.013       .  S
Fe1273     O1278   2.144       .  S
Fe1273     O1285   2.154       .  S
Fe1273     O1282   1.919       .  S
O1274      C1281   1.263   1_545  A
O1275      C1289   1.284       .  A
O1276      C1281   1.282       .  A
O1277      C1280   1.251       .  A
O1278      C1290   1.286       .  A
O1279      C1500   1.260       .  A
C1280      O1285   1.285       .  A
C1280      C1368   1.476       .  S
C1281      C1381   1.484       .  S
O1283      C1286   1.292       .  A
O1284      C1286   1.267       .  A
C1286      C1361   1.497       .  S
O1287     Fe1479   2.091   1_554  S
O1287      C1292   1.272       .  A
O1288      C1290   1.263       .  A
C1289      O1291   1.261       .  A
C1289      C1388   1.467       .  S
C1290      C1398   1.482       .  S
C1292      O1487   1.260   1_554  A
C1292      C1408   1.476       .  S
Fe1293     O1309   2.095       .  S
Fe1293     O1299   2.003       .  S
Fe1293     O1306   2.013       .  S
Fe1293     O1298   2.135       .  S
Fe1293     O1304   1.916       .  S
Fe1294     O1297   2.133       .  S
Fe1294     O1301   2.040       .  S
Fe1294     O1305   2.150       .  S
Fe1294     O1310   2.026       .  S
Fe1294     O1304   1.902       .  S
Fe1295     O1313   2.015       .  S
Fe1295     O1300   2.121       .  S
Fe1295     O1307   2.155       .  S
Fe1295     O1296   2.022       .  S
Fe1295     O1304   1.923       .  S
O1296      C1303   1.259       .  A
O1297      C1311   1.287       .  A
O1298      C1303   1.282       .  A
O1299      C1302   1.251       .  A
O1300      C1312   1.280       .  A
O1301      C1314   1.260       .  A
C1302      O1307   1.284       .  A
C1302      C1451   1.478       .  S
C1303      C1391   1.485       .  S
O1305      C1308   1.292       .  A
O1306      C1308   1.266       .  A
C1308      C1438   1.499       .  S
O1309      C1314   1.273       .  A
O1310      C1312   1.263       .  A
C1311      O1313   1.265       .  A
C1311      C1378   1.471       .  S
C1312      C1341   1.479       .  S
C1314      C1351   1.476       .  S
Fe1315     O1331   2.025       .  S
Fe1315     O1536   2.096   1_554  S
Fe1315     O1320   2.006       .  S
Fe1315     O1326   1.917       .  S
Fe1316     O1319   2.024       .  S
Fe1316     O1323   2.146       .  S
Fe1316     O1535   2.037       .  S
Fe1316     O1332   2.143       .  S
Fe1316     O1326   1.906       .  S
Fe1317     O1335   2.130       .  S
Fe1317     O1322   2.019       .  S
Fe1317     O1329   2.022       .  S
Fe1317     O1318   2.154       .  S
Fe1317     O1326   1.922       .  S
O1318      C1325   1.284       .  A
O1319      C1333   1.262       .  A
O1320      C1325   1.253       .  A
O1321      C1324   1.282       .  A
O1322      C1334   1.264       .  A
O1323      C1336   1.290       .  A
C1324      C1421   1.481       .  S
C1325      C1371   1.477       .  S
O1327     Fe1524   2.037       .  S
O1327      C1330   1.262       .  A
O1328     Fe1523   2.096       .  S
O1328      C1330   1.275       .  A
C1330      C1338   1.484       .  S
O1331      C1336   1.267       .  A
O1332      C1334   1.287       .  A
C1333      O1335   1.283       .  A
C1333      C1348   1.487       .  S
C1334      C1428   1.480       .  S
C1336      C1358   1.498       .  S
C1337      C1338   1.402       .  A
C1337      C1342   1.397       .  A
C1337      F1344   1.358       .  S
C1338      C1339   1.416       .  A
C1339      C1340   1.401       .  A
C1339      F1346   1.358       .  S
C1340      C1341   1.400       .  A
C1340      F1345   1.358       .  S
C1341      C1342   1.413       .  A
C1342      F1343   1.359       .  S
C1347      C1348   1.418       .  A
C1347      C1352   1.396       .  A
C1347      F1354   1.358       .  S
C1348      C1349   1.405       .  A
C1349      C1350   1.402       .  A
C1349      F1356   1.358       .  S
C1350      C1351   1.412       .  A
C1350      F1355   1.358       .  S
C1351      C1352   1.397       .  A
C1352      F1353   1.358       .  S
C1357      C1362   1.403       .  A
C1357      F1364   1.358       .  S
C1358      C1567   1.404       .  A
C1359      C1566   1.404       .  A
C1359      C1360   1.403       .  A
C1359      F1366   1.358       .  S
C1360      F1365   1.358       .  S
C1361      C1570   1.404       .  A
C1362      C1569   1.404       .  A
C1362      F1363   1.358       .  S
C1367      C1580   1.397       .  A
C1367      F1374   1.356       .  S
C1369      C1578   1.399       .  A
C1369      F1376   1.359       .  S
C1370      C1577   1.399       .  A
C1370      F1375   1.356       .  S
C1372      C1575   1.397       .  A
C1372      F1373   1.359       .  S
C1377      C1378   1.410   1_455  A
C1377      F1384   1.359       .  S
C1379      C1380   1.399       .  A
C1379      F1386   1.358       .  S
C1380      C1381   1.418       .  A
C1380      F1385   1.358       .  S
C1381      C1382   1.404       .  A
C1382      F1383   1.358       .  S
C1387      C1392   1.398   1_455  A
C1387      F1394   1.358       .  S
C1388      C1389   1.409       .  A
C1389      F1396   1.358       .  S
C1390      C1391   1.404       .  A
C1390      F1395   1.358       .  S
C1391      C1392   1.419       .  A
C1392      F1393   1.358       .  S
C1397      C1398   1.399       .  A
C1397      C1402   1.405       .  A
C1397      F1404   1.357       .  S
C1398      C1399   1.412       .  A
C1399      C1400   1.399       .  A
C1399      F1406   1.359       .  S
C1400      C1401   1.403       .  A
C1400      F1405   1.358       .  S
C1401      C1402   1.420       .  A
C1402      F1403   1.357       .  S
C1407      C1408   1.397       .  A
C1407      C1412   1.397       .  A
C1407      F1414   1.358       .  S
C1408      C1409   1.412       .  A
C1409      C1410   1.402       .  A
C1409      F1624   1.358   1_554  S
C1410      C1411   1.404       .  A
C1410      F1415   1.357       .  S
C1411      C1412   1.419       .  A
C1412      F1413   1.358       .  S
F1416      C1617   1.358       .  S
C1417      C1422   1.399       .  A
C1417      F1424   1.359       .  S
C1418      C1419   1.396       .  A
C1419      F1426   1.357       .  S
C1420      C1421   1.418       .  A
C1421      C1422   1.401       .  A
C1422      F1423   1.358       .  S
C1427      C1432   1.402       .  A
C1427      F1434   1.357       .  S
C1428      C1429   1.413   1_655  A
C1429      F1436   1.358       .  S
C1430      C1431   1.403       .  A
C1430      F1435   1.358       .  S
C1431      C1432   1.418       .  A
C1432      F1433   1.358       .  S
C1437      C1438   1.421       .  A
C1437      C1442   1.402       .  A
C1437      F1444   1.358       .  S
C1438      C1439   1.403       .  A
C1439      C1440   1.402       .  A
C1439      F1446   1.357       .  S
C1440      C1441   1.420       .  A
C1440      F1445   1.358       .  S
C1441      C1442   1.404       .  A
C1442      F1443   1.358       .  S
C1447      C1448   1.416       .  A
C1447      C1452   1.399       .  A
C1447      F1454   1.359       .  S
C1449      C1450   1.395       .  A
C1449      F1456   1.357       .  S
C1450      C1451   1.416       .  A
C1450      F1455   1.359       .  S
C1452      F1453   1.357       .  S
Fe1457     O1473   2.021       .  S
Fe1457     O1463   2.143       .  S
Fe1457     O1470   2.097       .  S
Fe1457     O1462   2.003       .  S
Fe1457     O1468   1.910       .  S
Fe1458     O1461   2.020       .  S
Fe1458     O1465   2.144       .  S
Fe1458     O1469   2.042       .  S
Fe1458     O1474   2.139       .  S
Fe1458     O1468   1.909       .  S
Fe1459     O1477   2.140       .  S
Fe1459     O1464   2.010       .  S
Fe1459     O1471   2.025       .  S
Fe1459     O1460   2.150       .  S
Fe1459     O1468   1.918       .  S
O1460      C1467   1.284       .  A
O1461      C1475   1.262       .  A
O1462      C1467   1.250       .  A
O1463      C1466   1.284       .  A
O1464      C1476   1.261       .  A
O1465      C1478   1.290       .  A
C1466      O1471   1.263       .  A
C1466      C1639   1.488       .  S
C1467      C1656   1.474       .  S
O1469      C1472   1.261       .  A
O1470      C1472   1.276       .  A
C1472      C1609   1.493       .  S
O1473      C1478   1.266       .  A
O1474      C1476   1.285       .  A
C1475      O1477   1.285       .  A
C1475      C1619   1.487       .  S
C1476      C1626   1.470       .  S
C1478      C1649   1.499       .  S
Fe1479     O1485   2.008       .  S
Fe1479     O1492   2.020       .  S
Fe1479     O1490   1.916       .  S
Fe1480     O1483   2.134       .  S
Fe1480     O1487   2.041       .  S
Fe1480     O1491   2.150       .  S
Fe1480     O1496   2.022       .  S
Fe1480     O1490   1.909       .  S
Fe1481     O1499   2.014       .  S
Fe1481     O1486   2.142       .  S
Fe1481     O1493   2.152       .  S
Fe1481     O1490   1.919       .  S
O1482      C1489   1.263   1_545  A
O1483      C1497   1.284       .  A
O1484      C1489   1.282       .  A
O1485      C1488   1.251       .  A
O1486      C1498   1.286       .  A
C1488      O1493   1.285       .  A
C1488      C1576   1.475       .  S
C1489      C1589   1.484       .  S
O1491      C1494   1.292       .  A
O1492      C1494   1.267       .  A
C1494      C1569   1.497       .  S
O1495      C1500   1.272       .  A
O1496      C1498   1.264       .  A
C1497      O1499   1.261       .  A
C1497      C1596   1.466       .  S
C1498      C1606   1.479       .  S
C1500      C1616   1.476       .  S
Fe1501     O1517   2.095       .  S
Fe1501     O1507   2.003       .  S
Fe1501     O1514   2.014       .  S
Fe1501     O1506   2.135       .  S
Fe1501     O1512   1.916       .  S
Fe1502     O1505   2.132       .  S
Fe1502     O1509   2.040       .  S
Fe1502     O1513   2.149       .  S
Fe1502     O1518   2.026       .  S
Fe1502     O1512   1.902       .  S
Fe1503     O1521   2.015       .  S
Fe1503     O1508   2.121       .  S
Fe1503     O1515   2.154       .  S
Fe1503     O1504   2.023       .  S
Fe1503     O1512   1.923       .  S
O1504      C1511   1.259       .  A
O1505      C1519   1.286       .  A
O1506      C1511   1.282       .  A
O1507      C1510   1.251       .  A
O1508      C1520   1.280       .  A
O1509      C1522   1.260       .  A
C1510      O1515   1.284       .  A
C1510      C1659   1.477       .  S
C1511      C1599   1.485       .  S
O1513      C1516   1.292       .  A
O1514      C1516   1.266       .  A
C1516      C1646   1.499       .  S
O1517      C1522   1.273       .  A
O1518      C1520   1.263       .  A
C1519      O1521   1.265       .  A
C1519      C1586   1.471       .  S
C1520      C1549   1.479       .  S
C1522      C1559   1.476       .  S
Fe1523     O1539   2.025       .  S
Fe1523     O1528   2.007       .  S
Fe1523     O1534   1.917       .  S
Fe1524     O1527   2.023       .  S
Fe1524     O1531   2.146       .  S
Fe1524     O1540   2.144       .  S
Fe1524     O1534   1.906       .  S
Fe1525     O1543   2.130       .  S
Fe1525     O1530   2.019       .  S
Fe1525     O1537   2.021       .  S
Fe1525     O1526   2.154       .  S
Fe1525     O1534   1.923       .  S
O1526      C1533   1.284       .  A
O1527      C1541   1.262       .  A
O1528      C1533   1.253       .  A
O1529      C1532   1.282       .  A
O1530      C1542   1.264       .  A
O1531      C1544   1.290       .  A
C1532      C1629   1.482       .  S
C1533      C1579   1.476       .  S
O1535      C1538   1.262   1_554  A
O1536      C1538   1.275       .  A
C1538      C1546   1.484       .  S
O1539      C1544   1.267       .  A
O1540      C1542   1.287       .  A
C1541      O1543   1.283       .  A
C1541      C1556   1.486       .  S
C1542      C1636   1.479       .  S
C1544      C1566   1.497       .  S
C1545      C1546   1.402       .  A
C1545      C1550   1.397       .  A
C1545      F1552   1.358       .  S
C1546      C1547   1.416       .  A
C1547      C1548   1.401       .  A
C1547      F1554   1.358       .  S
C1548      C1549   1.400       .  A
C1548      F1553   1.358       .  S
C1549      C1550   1.412       .  A
C1550      F1551   1.359       .  S
C1555      C1556   1.418       .  A
C1555      C1560   1.396       .  A
C1555      F1562   1.358       .  S
C1556      C1557   1.404       .  A
C1557      C1558   1.402       .  A
C1557      F1564   1.358       .  S
C1558      C1559   1.412       .  A
C1558      F1563   1.358       .  S
C1559      C1560   1.397       .  A
C1560      F1561   1.358       .  S
C1565      C1570   1.403       .  A
C1565      F1572   1.358       .  S
C1567      C1568   1.403   1_554  A
C1567      F1574   1.358       .  S
C1568      F1573   1.358   1_556  S
C1570      F1571   1.358       .  S
C1575      F1582   1.356       .  S
C1577      F1584   1.359       .  S
C1578      F1583   1.356       .  S
C1580      F1581   1.359       .  S
C1585      C1586   1.410   1_455  A
C1585      F1592   1.359       .  S
C1587      C1588   1.399       .  A
C1587      F1594   1.358       .  S
C1588      C1589   1.418       .  A
C1588      F1593   1.358       .  S
C1589      C1590   1.404       .  A
C1590      F1591   1.358       .  S
C1595      C1600   1.398   1_455  A
C1595      F1602   1.358       .  S
C1596      C1597   1.408       .  A
C1597      F1604   1.358       .  S
C1598      C1599   1.405       .  A
C1598      F1603   1.358       .  S
C1599      C1600   1.419       .  A
C1600      F1601   1.358       .  S
C1605      C1606   1.398       .  A
C1605      C1610   1.405       .  A
C1605      F1612   1.358       .  S
C1606      C1607   1.411       .  A
C1607      C1608   1.399       .  A
C1607      F1614   1.358       .  S
C1608      C1609   1.405       .  A
C1608      F1613   1.358       .  S
C1609      C1610   1.421       .  A
C1610      F1611   1.357       .  S
C1615      C1616   1.397       .  A
C1615      C1620   1.397       .  A
C1615      F1622   1.358       .  S
C1616      C1617   1.412       .  A
C1617      C1618   1.402       .  A
C1618      C1619   1.404       .  A
C1618      F1623   1.357       .  S
C1619      C1620   1.419       .  A
C1620      F1621   1.358       .  S
C1625      C1630   1.399       .  A
C1625      F1632   1.359       .  S
C1626      C1627   1.395       .  A
C1627      F1634   1.357       .  S
C1628      C1629   1.419       .  A
C1629      C1630   1.402       .  A
C1630      F1631   1.358       .  S
C1635      C1640   1.402       .  A
C1635      F1642   1.357       .  S
C1636      C1637   1.412   1_655  A
C1637      F1644   1.358       .  S
C1638      C1639   1.402       .  A
C1638      F1643   1.358       .  S
C1639      C1640   1.418       .  A
C1640      F1641   1.358       .  S
C1645      C1646   1.420       .  A
C1645      C1650   1.402       .  A
C1645      F1652   1.358       .  S
C1646      C1647   1.403       .  A
C1647      C1648   1.402       .  A
C1647      F1654   1.357       .  S
C1648      C1649   1.420       .  A
C1648      F1653   1.358       .  S
C1649      C1650   1.404       .  A
C1650      F1651   1.358       .  S
C1655      C1656   1.416       .  A
C1655      C1660   1.399       .  A
C1655      F1662   1.359       .  S
C1657      C1658   1.395       .  A
C1657      F1664   1.357       .  S
C1658      C1659   1.415       .  A
C1658      F1663   1.359       .  S
C1660      F1661   1.357       .  S
