geometry optimzed in LAMMPS
_audit_creation_date              2020-12-01 
_audit_creation_method            'lammps2cif' 
_symmetry_space_group_name_H-M    'P1' 
_symmetry_Int_Tables_number       1 
_symmetry_cell_setting            triclinic 
loop_ 
_symmetry_equiv_pos_as_xyz 
  x,y,z 
_cell_length_a                    36.50447075 
_cell_length_b                    40.667312180859504 
_cell_length_c                    47.735372529390894 
_cell_angle_alpha                 89.99993321879418 
_cell_angle_beta                  97.9338660937237 
_cell_angle_gamma                 90.00037251058137 
loop_ 
_atom_site_label 
_atom_site_type_symbol 
_atom_site_fract_x 
_atom_site_fract_y 
_atom_site_fract_z 
_atom_site_charge 
O1          O  0.45233383  0.45381808  0.37516723    -0.80700
C2          C  0.40783822  0.37018347  0.45567846     0.98600
O3          O  0.39056395  0.39653221  0.44797479    -0.69800
O4          O  0.43625873  0.44510362  0.44779085    -0.73400
Al5        Al  0.39949626  0.42886680  0.42001791     1.49000
C6          C  0.47019476  0.45029811  0.44836599     0.93900
O7          O  0.50225531  0.38217530  0.41270774    -0.79600
O8          O  0.41180160  0.36619571  0.35932302    -0.73200
Al9        Al  0.47270219  0.41663176  0.39448118     1.90100
O10         O  0.46582517  0.34180353  0.39818858    -0.72300
O11         O  0.36555954  0.36415588  0.39786850    -0.72100
O12         O  0.42362785  0.35302053  0.43865667    -0.77800
O13         O  0.35674576  0.41692990  0.39426746    -0.76000
O14         O  0.43016344  0.40238291  0.40447936    -1.12100
O15         O  0.40432841  0.46612773  0.39606487    -0.71300
C16         C  0.42672948  0.47302447  0.37906654     0.99400
C17         C  0.49743652  0.35224642  0.40746462     0.95800
Al18       Al  0.41779356  0.36005484  0.39899289     1.55600
O19         O  0.48731289  0.44136702  0.42841785    -0.75900
C20         C  0.34422652  0.38813917  0.39241537     1.00000
C21         C  0.43547841  0.37943323  0.34578393     0.94900
O22         O  0.46374588  0.39451512  0.35819378    -0.81300
O23         O  0.54571250  0.09051952  0.15316107    -0.80700
C24         C  0.60169994  0.11487972  0.05571019     0.98600
O25         O  0.58585377  0.13204185  0.07270117    -0.69800
O26         O  0.54359267  0.14325433  0.11313726    -0.73400
Al27       Al  0.59164479  0.12505134  0.11237106     1.49000
C28         C  0.51199875  0.13278264  0.10385885     0.93900
O29         O  0.52227657  0.04368714  0.08291661    -0.79600
O30         O  0.60536289  0.01902345  0.11546166    -0.73200
Al31       Al  0.53680794  0.06840980  0.11686832     1.90100
O32         O  0.57342993  0.03986738  0.06367983    -0.72300
O33         O  0.65281901  0.06829689  0.11719866    -0.72100
O34         O  0.61898595  0.08854387  0.06344350    -0.77800
O35         O  0.64388559  0.12104562  0.11352981    -0.76000
O36         O  0.57935590  0.08270067  0.10691152    -1.12100
O37         O  0.59759505  0.11894291  0.15204160    -0.71300
C38         C  0.57394061  0.10565620  0.16557403     0.99400
C39         C  0.53947827  0.03469621  0.06303313     0.95800
Al40       Al  0.61011721  0.05623970  0.09144591     1.55600
O41         O  0.50721697  0.10284630  0.09863434    -0.75900
C42         C  0.66527168  0.09710913  0.11901934     1.00000
C43         C  0.58288472  0.01207916  0.13238705     0.94900
O44         O  0.55717530  0.03121864  0.13618285    -0.81300
O45         O  0.46390774  0.34052195  0.10820861    -0.80700
C46         C  0.40791444  0.36487941  0.20565758     0.98600
O47         O  0.42376237  0.38204186  0.18866761    -0.69800
O48         O  0.46602642  0.39325517  0.14823357    -0.73400
Al49       Al  0.41797353  0.37505253  0.14899767     1.49000
C50         C  0.49761981  0.38278305  0.15751257     0.93900
O51         O  0.48733801  0.29368675  0.17845231    -0.79600
O52         O  0.40425437  0.26902415  0.14590560    -0.73200
Al53       Al  0.47280939  0.31841089  0.14450096     1.90100
O54         O  0.43618375  0.28986845  0.19768823    -0.72300
O55         O  0.35679869  0.31829782  0.14416590    -0.72100
O56         O  0.39062735  0.33854437  0.19792283    -0.77800
O57         O  0.36573228  0.37104660  0.14783659    -0.76000
O58         O  0.43026116  0.33270171  0.15445674    -1.12100
O59         O  0.41202554  0.36894534  0.10932704    -0.71300
C60         C  0.43568040  0.35565898  0.09579515     0.99400
C61         C  0.47013513  0.28469629  0.19833536     0.95800
Al62       Al  0.39949828  0.30624053  0.16992078     1.55600
O63         O  0.50240046  0.35284648  0.16273673    -0.75900
C64         C  0.34434646  0.34711010  0.14234440     1.00000
C65         C  0.42673297  0.26208039  0.12898054     0.94900
O66         O  0.45244207  0.28122054  0.12518484    -0.81300
O67         O  0.55727972  0.20381967  0.38619998    -0.80700
C68         C  0.60177677  0.12018479  0.30568997     0.98600
O69         O  0.61904933  0.14653485  0.31339294    -0.69800
O70         O  0.57335546  0.19510626  0.31357823    -0.73400
Al71       Al  0.61011850  0.17886879  0.34135046     1.49000
C72         C  0.53941895  0.20029848  0.31300228     0.93900
O73         O  0.50735991  0.13217459  0.34866150    -0.79600
O74         O  0.59781430  0.11619772  0.40204549    -0.73200
Al75       Al  0.53691256  0.16663208  0.36688706     1.90100
O76         O  0.54379078  0.09180380  0.36318062    -0.72300
O77         O  0.64405572  0.11415786  0.36349928    -0.72100
O78         O  0.58598754  0.10302160  0.32271198    -0.77800
O79         O  0.65287016  0.16693181  0.36709965    -0.76000
O80         O  0.57945166  0.15238412  0.35688902    -1.12100
O81         O  0.60528740  0.21612889  0.36530460    -0.71300
C82         C  0.58288513  0.22302593  0.38230197     0.99400
C83         C  0.51217929  0.10224589  0.35390478     0.95800
Al84       Al  0.59182202  0.11005629  0.36237571     1.55600
O85         O  0.52230070  0.19136574  0.33294999    -0.75900
C86         C  0.66538952  0.13814116  0.36895085     1.00000
C87         C  0.57413755  0.12943511  0.41558463     0.94900
O88         O  0.54586996  0.14451656  0.40317484    -0.81300
O89         O  0.04568533  0.34065936  0.40315613    -0.80700
C90         C  0.10167662  0.36501019  0.30569712     0.98600
O91         O  0.08584177  0.38216907  0.32269556    -0.69800
O92         O  0.04357928  0.39337063  0.36312470    -0.73400
Al93       Al  0.09163130  0.37516239  0.36236264     1.49000
C94         C  0.01198453  0.38290045  0.35384220     0.93900
O95         O  0.02222949  0.29378802  0.33293233    -0.79600
O96         O  0.10528311  0.26912601  0.36540449    -0.73200
Al97       Al  0.03678038  0.31853269  0.36687049     1.90100
O98         O  0.07334157  0.29001828  0.31363817    -0.72300
O99         O  0.15277303  0.31837212  0.36715406    -0.72100
O100        O  0.11894236  0.33866197  0.31341735    -0.77800
O101        O  0.14387272  0.37112950  0.36352305    -0.76000
O102        O  0.07932215  0.33281722  0.35689558    -1.12100
O103        O  0.09758455  0.36905002  0.40203360    -0.71300
C104        C  0.07392229  0.35578229  0.41556852     0.99400
C105        C  0.03939914  0.28482408  0.31302308     0.95800
Al106      Al  0.11005471  0.30635127  0.34140532     1.55600
O107        O  0.00719489  0.35296274  0.34862591    -0.75900
C108        C  0.16524372  0.34717822  0.36899534     1.00000
C109        C  0.08284631  0.26220112  0.38236679     0.94900
O110        O  0.05716632  0.28135700  0.38619800    -0.81300
O111        O  0.95230949  0.20397762  0.12516698    -0.80700
C112        C  0.90781503  0.12030939  0.20564351     0.98600
O113        O  0.89051582  0.14664438  0.19793051    -0.69800
O114        O  0.93617018  0.19524800  0.19774888    -0.73400
Al115      Al  0.89943394  0.17898404  0.16996999     1.49000
C116        C  0.97011163  0.20043472  0.19834943     0.93900
O117        O  0.00223747  0.13232011  0.16268072    -0.79600
O118        O  0.91179964  0.11632344  0.10929246    -0.73200
Al119      Al  0.97267122  0.16677948  0.14446685     1.90100
O120        O  0.96582401  0.09194297  0.14815418    -0.72300
O121        O  0.86555239  0.11425136  0.14783543    -0.72100
O122        O  0.92362131  0.10315183  0.18862701    -0.77800
O123        O  0.85670306  0.16701830  0.14420912    -0.76000
O124        O  0.93013091  0.15251400  0.15444781    -1.12100
O125        O  0.90425097  0.21624879  0.14601430    -0.71300
C126        C  0.92668299  0.22316900  0.12904561     0.99400
C127        C  0.99743218  0.10239194  0.15742766     0.95800
Al128      Al  0.91778728  0.11018007  0.14896137     1.55600
O129        O  0.98725755  0.19149436  0.17841883    -0.75900
C130        C  0.84420352  0.13822058  0.14236922     1.00000
C131        C  0.93546794  0.12958329  0.09575762     0.94900
O132        O  0.96372293  0.14468171  0.10817054    -0.81300
O133        O  0.05731079  0.45397841  0.13617301    -0.80700
C134        C  0.10180342  0.37031464  0.05569394     0.98600
O135        O  0.11910396  0.39664891  0.06340818    -0.69800
O136        O  0.07345117  0.44525312  0.06359216    -0.73400
Al137      Al  0.11018698  0.42898697  0.09137029     1.49000
C138        C  0.03950948  0.45043864  0.06299111     0.93900
O139        O  0.00738244  0.38232141  0.09865798    -0.79600
O140        O  0.09782066  0.36632333  0.15204503    -0.73200
Al141      Al  0.03694915  0.41678053  0.11687240     1.90100
O142        O  0.04379585  0.34194430  0.11318325    -0.72300
O143        O  0.14406726  0.36425294  0.11350160    -0.72100
O144        O  0.08599737  0.35315589  0.07270997    -0.77800
O145        O  0.15291740  0.41701961  0.11713081    -0.76000
O146        O  0.07948934  0.40251595  0.10689114    -1.12100
O147        O  0.10537106  0.46625009  0.11532774    -0.71300
C148        C  0.08293823  0.47316973  0.13229586     0.99400
C149        C  0.01218739  0.35239325  0.10391071     0.95800
Al150      Al  0.09183236  0.36018182  0.11237588     1.55600
O151        O  0.02236294  0.44149622  0.08292088    -0.75900
C152        C  0.16541633  0.38822179  0.11897013     1.00000
C153        C  0.07415284  0.37958265  0.16558029     0.94900
O154        O  0.04589792  0.39468154  0.15316820    -0.81300
O155        O  0.96392883  0.09065432  0.35818104    -0.80700
C156        C  0.90794321  0.11500968  0.45564120     0.98600
O157        O  0.92377628  0.13216839  0.43864127    -0.69800
O158        O  0.96603603  0.14336917  0.39820995    -0.73400
Al159      Al  0.91798490  0.12515986  0.39897436     1.49000
C160        C  0.99763107  0.13290039  0.40749291     0.93900
O161        O  0.98738919  0.04379007  0.42840769    -0.79600
O162        O  0.90433089  0.01912441  0.39593367    -0.73200
Al163      Al  0.97283639  0.06853096  0.39446810     1.90100
O164        O  0.93627607  0.04001511  0.44769984    -0.72300
O165        O  0.85684183  0.06837036  0.39418724    -0.72100
O166        O  0.89067817  0.08866024  0.44792255    -0.77800
O167        O  0.86574402  0.12112751  0.39781620    -0.76000
O168        O  0.93029440  0.08281500  0.40444267    -1.12100
O169        O  0.91202989  0.11904512  0.35930354    -0.71300
C170        C  0.93569140  0.10577635  0.34576861     0.99400
C171        C  0.97021939  0.03482426  0.44831625     0.95800
Al172      Al  0.89956212  0.05634922  0.41993391     1.55600
O173        O  0.00242145  0.10296307  0.41271005    -0.75900
C174        C  0.84437158  0.09717636  0.39234662     1.00000
C175        C  0.92676961  0.01219809  0.37897339     0.94900
O176        O  0.95245179  0.03135267  0.37514377    -0.81300
C177        C  0.98881374  0.01751119  0.47229014    -0.17400
C178        C  0.99960903  0.00191274  0.49326941     0.06600
C179        C  0.01009119  0.48331313  0.01802745     0.08500
C180        C  0.02089262  0.46772520  0.03901115    -0.18300
C181        C  0.92973180  0.12823950  0.06544752    -0.17400
C182        C  0.92363300  0.12823592  0.03998432     0.06600
C183        C  0.91627844  0.12747357  0.01018054     0.08500
C184        C  0.91113923  0.12416339  0.48486246    -0.18300
C185        C  0.91109994  0.11118042  0.23487566    -0.17400
C186        C  0.91633830  0.10788817  0.26019458     0.06600
C187        C  0.92379943  0.10713439  0.28999578     0.08500
C188        C  0.92995303  0.10712857  0.31545749    -0.18300
C189        C  0.02822421  0.07994223  0.16033989    -0.17400
C190        C  0.05104916  0.05866196  0.15909200     0.06600
C191        C  0.07232458  0.03088900  0.15356343     0.08500
C192        C  0.08305781  0.00493613  0.14546862    -0.18300
C193        C  0.98139532  0.32994335  0.10099952    -0.17400
C194        C  0.95857076  0.30866252  0.10224883     0.06600
C195        C  0.93729642  0.28088923  0.10777876     0.08500
C196        C  0.92656364  0.25493598  0.11587378    -0.18300
C197        C  0.02080529  0.26750901  0.28904986    -0.17400
C198        C  0.01001094  0.25190950  0.26807127     0.06600
C199        C  0.99952966  0.23330878  0.24331343     0.08500
C200        C  0.98872871  0.21772083  0.22232976    -0.18300
C201        C  0.02842226  0.15534798  0.41045995    -0.17400
C202        C  0.05121147  0.17666425  0.40924011     0.06600
C203        C  0.07240108  0.20448906  0.40371227     0.08500
C204        C  0.08304283  0.23046198  0.39559096    -0.18300
C205        C  0.92657216  0.48045893  0.36574875    -0.17400
C206        C  0.93721359  0.45448665  0.35762651     0.06600
C207        C  0.95840314  0.42666243  0.35209688     0.08500
C208        C  0.98119242  0.40534697  0.35087570    -0.18300
C209        C  0.07988934  0.37823770  0.19589063    -0.17400
C210        C  0.08598840  0.37823391  0.22135342     0.06600
C211        C  0.09334304  0.37747191  0.25115754     0.08500
C212        C  0.09848174  0.37416242  0.27647530    -0.18300
C213        C  0.09851675  0.36118798  0.02646137    -0.17400
C214        C  0.09327657  0.35789666  0.00114228     0.06600
C215        C  0.08581383  0.35714299  0.47134123     0.08500
C216        C  0.07965971  0.35713627  0.44587956    -0.18300
C217        C  0.80537210  0.10343095  0.38566279    -0.17400
C218        C  0.77338594  0.11200144  0.38220823     0.06600
C219        C  0.73639464  0.12339129  0.37907676     0.08500
C220        C  0.70440073  0.13193891  0.37562550    -0.18300
C221        C  0.30535346  0.35338854  0.13565984    -0.17400
C222        C  0.27337822  0.36198851  0.13221198     0.06600
C223        C  0.23640361  0.37341678  0.12909179     0.08500
C224        C  0.20442076  0.38199444  0.12564659    -0.18300
C225        C  0.48870216  0.26737849  0.22231616    -0.17400
C226        C  0.49948090  0.25177638  0.24329627     0.06600
C227        C  0.50996103  0.23317332  0.26805214     0.08500
C228        C  0.52077618  0.21758371  0.28903183    -0.18300
C229        C  0.70426539  0.10338763  0.12569894    -0.17400
C230        C  0.73624069  0.11198766  0.12914155     0.06600
C231        C  0.77321535  0.12341597  0.13225551     0.08500
C232        C  0.80519837  0.13199352  0.13569609    -0.18300
C233        C  0.59850334  0.11104374  0.27646291    -0.17400
C234        C  0.59327580  0.10774874  0.25114476     0.06600
C235        C  0.58582536  0.10700082  0.22134484     0.08500
C236        C  0.57967724  0.10700253  0.19588360    -0.18300
C237        C  0.59849494  0.12401370  0.02648274    -0.17400
C238        C  0.59334667  0.12731520  0.00116356     0.06600
C239        C  0.58598278  0.12807682  0.47135900     0.08500
C240        C  0.57987819  0.12808436  0.44589556    -0.18300
C241        C  0.42655061  0.23033607  0.11576231    -0.17400
C242        C  0.43720854  0.20436318  0.10765092     0.06600
C243        C  0.45840902  0.17654042  0.10212798     0.08500
C244        C  0.48120116  0.15522658  0.10090351    -0.18300
C245        C  0.52841803  0.40522635  0.16046820    -0.17400
C246        C  0.55121076  0.42653996  0.15924296     0.06600
C247        C  0.57241092  0.45436243  0.15371860     0.08500
C248        C  0.58306807  0.48033520  0.14560585    -0.18300
C249        C  0.20424305  0.35343226  0.37568388    -0.17400
C250        C  0.23622924  0.36200156  0.37914334     0.06600
C251        C  0.27322169  0.37339019  0.38228106     0.08500
C252        C  0.30521550  0.38193690  0.38573675    -0.18300
C253        C  0.52090994  0.01737927  0.03905245    -0.17400
C254        C  0.51013083  0.00177755  0.01807192     0.06600
C255        C  0.49965135  0.48317441  0.49331587     0.08500
C256        C  0.48883690  0.46758452  0.47233645    -0.18300
C257        C  0.48139728  0.07978839  0.35098213    -0.17400
C258        C  0.45857777  0.05850451  0.35222852     0.06600
C259        C  0.43731506  0.03073052  0.35776808     0.08500
C260        C  0.42659808  0.00478079  0.36587909    -0.18300
C261        C  0.52821870  0.32978953  0.41038754    -0.17400
C262        C  0.55103801  0.30850555  0.40914105     0.06600
C263        C  0.57230003  0.28073167  0.40360104     0.08500
C264        C  0.58301677  0.25478194  0.39548973    -0.18300
C265        C  0.42973816  0.37808208  0.31547281    -0.17400
C266        C  0.42363310  0.37807420  0.29000942     0.06600
C267        C  0.41626814  0.37731265  0.26020473     0.08500
C268        C  0.41111936  0.37401185  0.23488541    -0.18300
C269        C  0.42994473  0.35700536  0.06548542    -0.17400
C270        C  0.42379602  0.35700329  0.04002429     0.06600
C271        C  0.41634358  0.35775018  0.01022422     0.08500
C272        C  0.41111386  0.36104390  0.48490605    -0.18300
O273        O  0.45233386  0.45381806  0.87516723    -0.80700
C274        C  0.40783841  0.37018342  0.95567843     0.98600
O275        O  0.39056403  0.39653221  0.94797477    -0.69800
O276        O  0.43625879  0.44510359  0.94779091    -0.73400
Al277      Al  0.39949637  0.42886677  0.92001792     1.49000
C278        C  0.47019476  0.45029817  0.94836611     0.93900
O279        O  0.50225527  0.38217530  0.91270771    -0.79600
O280        O  0.41180164  0.36619573  0.85932303    -0.73200
Al281      Al  0.47270214  0.41663171  0.89448120     1.90100
O282        O  0.46582519  0.34180349  0.89818850    -0.72300
O283        O  0.36555963  0.36415593  0.89786852    -0.72100
O284        O  0.42362793  0.35302052  0.93865671    -0.77800
O285        O  0.35674589  0.41692997  0.89426751    -0.76000
O286        O  0.43016344  0.40238279  0.90447939    -1.12100
O287        O  0.40432850  0.46612770  0.89606484    -0.71300
C288        C  0.42672944  0.47302445  0.87906647     0.99400
C289        C  0.49743637  0.35224623  0.90746457     0.95800
Al290      Al  0.41779355  0.36005477  0.89899286     1.55600
O291        O  0.48731287  0.44136702  0.92841788    -0.75900
C292        C  0.34422640  0.38813935  0.89241530     1.00000
C293        C  0.43547848  0.37943321  0.84578383     0.94900
O294        O  0.46374597  0.39451505  0.85819368    -0.81300
O295        O  0.54571249  0.09051960  0.65316104    -0.80700
C296        C  0.60170005  0.11487988  0.55571019     0.98600
O297        O  0.58585366  0.13204181  0.57270117    -0.69800
O298        O  0.54359267  0.14325435  0.61313724    -0.73400
Al299      Al  0.59164473  0.12505133  0.61237101     1.49000
C300        C  0.51199870  0.13278272  0.60385882     0.93900
O301        O  0.52227663  0.04368719  0.58291664    -0.79600
O302        O  0.60536286  0.01902347  0.61546174    -0.73200
Al303      Al  0.53680797  0.06840985  0.61686832     1.90100
O304        O  0.57342999  0.03986741  0.56367988    -0.72300
O305        O  0.65281882  0.06829695  0.61719873    -0.72100
O306        O  0.61898599  0.08854387  0.56344354    -0.77800
O307        O  0.64388557  0.12104568  0.61352971    -0.76000
O308        O  0.57935589  0.08270065  0.60691148    -1.12100
O309        O  0.59759502  0.11894296  0.65204158    -0.71300
C310        C  0.57394054  0.10565630  0.66557401     0.99400
C311        C  0.53947841  0.03469636  0.56303321     0.95800
Al312      Al  0.61011718  0.05623970  0.59144592     1.55600
O313        O  0.50721698  0.10284633  0.59863438    -0.75900
C314        C  0.66527159  0.09710914  0.61901940     1.00000
C315        C  0.58288463  0.01207924  0.63238709     0.94900
O316        O  0.55717518  0.03121865  0.63618278    -0.81300
O317        O  0.46390776  0.34052183  0.60820863    -0.80700
C318        C  0.40791459  0.36487958  0.70565759     0.98600
O319        O  0.42376245  0.38204190  0.68866762    -0.69800
O320        O  0.46602638  0.39325515  0.64823358    -0.73400
Al321      Al  0.41797354  0.37505255  0.64899760     1.49000
C322        C  0.49761977  0.38278303  0.65751253     0.93900
O323        O  0.48733803  0.29368681  0.67845225    -0.79600
O324        O  0.40425430  0.26902421  0.64590563    -0.73200
Al325      Al  0.47280948  0.31841085  0.64450092     1.90100
O326        O  0.43618372  0.28986837  0.69768816    -0.72300
O327        O  0.35679873  0.31829788  0.64416602    -0.72100
O328        O  0.39062739  0.33854445  0.69792279    -0.77800
O329        O  0.36573230  0.37104667  0.64783646    -0.76000
O330        O  0.43026122  0.33270171  0.65445668    -1.12100
O331        O  0.41202555  0.36894531  0.60932698    -0.71300
C332        C  0.43568059  0.35565887  0.59579518     0.99400
C333        C  0.47013525  0.28469624  0.69833532     0.95800
Al334      Al  0.39949833  0.30624056  0.66992080     1.55600
O335        O  0.50240049  0.35284645  0.66273665    -0.75900
C336        C  0.34434656  0.34711019  0.64234435     1.00000
C337        C  0.42673290  0.26208044  0.62898047     0.94900
O338        O  0.45244203  0.28122057  0.62518484    -0.81300
O339        O  0.55727978  0.20381964  0.88619992    -0.80700
C340        C  0.60177684  0.12018475  0.80568995     0.98600
O341        O  0.61904939  0.14653484  0.81339288    -0.69800
O342        O  0.57335558  0.19510624  0.81357821    -0.73400
Al343      Al  0.61011853  0.17886880  0.84135041     1.49000
C344        C  0.53941914  0.20029854  0.81300228     0.93900
O345        O  0.50735997  0.13217464  0.84866145    -0.79600
O346        O  0.59781426  0.11619777  0.90204551    -0.73200
Al347      Al  0.53691254  0.16663214  0.86688704     1.90100
O348        O  0.54379075  0.09180384  0.86318064    -0.72300
O349        O  0.64405575  0.11415786  0.86349928    -0.72100
O350        O  0.58598759  0.10302159  0.82271197    -0.77800
O351        O  0.65287018  0.16693182  0.86709960    -0.76000
O352        O  0.57945158  0.15238419  0.85688893    -1.12100
O353        O  0.60528747  0.21612888  0.86530457    -0.71300
C354        C  0.58288525  0.22302589  0.88230189     0.99400
C355        C  0.51217938  0.10224604  0.85390476     0.95800
Al356      Al  0.59182196  0.11005635  0.86237570     1.55600
O357        O  0.52230081  0.19136583  0.83295000    -0.75900
C358        C  0.66538954  0.13814108  0.86895085     1.00000
C359        C  0.57413748  0.12943518  0.91558463     0.94900
O360        O  0.54586992  0.14451656  0.90317487    -0.81300
O361        O  0.04568535  0.34065940  0.90315617    -0.80700
C362        C  0.10167667  0.36501021  0.80569697     0.98600
O363        O  0.08584181  0.38216905  0.82269570    -0.69800
O364        O  0.04357942  0.39337057  0.86312479    -0.73400
Al365      Al  0.09163137  0.37516230  0.86236270     1.49000
C366        C  0.01198457  0.38290037  0.85384221     0.93900
O367        O  0.02222963  0.29378807  0.83293236    -0.79600
O368        O  0.10528315  0.26912604  0.86540448    -0.73200
Al369      Al  0.03678037  0.31853270  0.86687053     1.90100
O370        O  0.07334166  0.29001831  0.81363816    -0.72300
O371        O  0.15277308  0.31837211  0.86715411    -0.72100
O372        O  0.11894237  0.33866200  0.81341745    -0.77800
O373        O  0.14387267  0.37112944  0.86352304    -0.76000
O374        O  0.07932213  0.33281718  0.85689571    -1.12100
O375        O  0.09758462  0.36905003  0.90203364    -0.71300
C376        C  0.07392253  0.35578230  0.91556855     0.99400
C377        C  0.03939925  0.28482402  0.81302307     0.95800
Al378      Al  0.11005473  0.30635132  0.84140538     1.55600
O379        O  0.00719494  0.35296280  0.84862586    -0.75900
C380        C  0.16524397  0.34717816  0.86899544     1.00000
C381        C  0.08284639  0.26220112  0.88236672     0.94900
O382        O  0.05716634  0.28135698  0.88619801    -0.81300
O383        O  0.95230941  0.20397767  0.62516692    -0.80700
C384        C  0.90781516  0.12030933  0.70564369     0.98600
O385        O  0.89051571  0.14664436  0.69793050    -0.69800
O386        O  0.93617008  0.19524815  0.69774883    -0.73400
Al387      Al  0.89943386  0.17898406  0.66996994     1.49000
C388        C  0.97011166  0.20043475  0.69834956     0.93900
O389        O  0.00223737  0.13232011  0.66268074    -0.79600
O390        O  0.91179949  0.11632345  0.60929242    -0.73200
Al391      Al  0.97267116  0.16677951  0.64446682     1.90100
O392        O  0.96582392  0.09194304  0.64815410    -0.72300
O393        O  0.86555238  0.11425138  0.64783550    -0.72100
O394        O  0.92362130  0.10315183  0.68862708    -0.77800
O395        O  0.85670293  0.16701831  0.64420909    -0.76000
O396        O  0.93013084  0.15251400  0.65444774    -1.12100
O397        O  0.90425091  0.21624882  0.64601429    -0.71300
C398        C  0.92668294  0.22316907  0.62904569     0.99400
C399        C  0.99743215  0.10239205  0.65742769     0.95800
Al400      Al  0.91778722  0.11018009  0.64896137     1.55600
O401        O  0.98725751  0.19149435  0.67841883    -0.75900
C402        C  0.84420340  0.13822074  0.64236925     1.00000
C403        C  0.93546790  0.12958335  0.59575759     0.94900
O404        O  0.96372285  0.14468164  0.60817053    -0.81300
O405        O  0.05731086  0.45397839  0.63617301    -0.80700
C406        C  0.10180342  0.37031467  0.55569397     0.98600
O407        O  0.11910400  0.39664895  0.56340815    -0.69800
O408        O  0.07345121  0.44525310  0.56359217    -0.73400
Al409      Al  0.11018695  0.42898701  0.59137032     1.49000
C410        C  0.03950938  0.45043862  0.56299105     0.93900
O411        O  0.00738243  0.38232137  0.59865797    -0.79600
O412        O  0.09782069  0.36632332  0.65204499    -0.73200
Al413      Al  0.03694916  0.41678053  0.61687243     1.90100
O414        O  0.04379584  0.34194426  0.61318325    -0.72300
O415        O  0.14406730  0.36425299  0.61350159    -0.72100
O416        O  0.08599738  0.35315597  0.57270996    -0.77800
O417        O  0.15291735  0.41701968  0.61713083    -0.76000
O418        O  0.07948939  0.40251593  0.60689121    -1.12100
O419        O  0.10537107  0.46625013  0.61532772    -0.71300
C420        C  0.08293824  0.47316971  0.63229587     0.99400
C421        C  0.01218755  0.35239323  0.60391068     0.95800
Al422      Al  0.09183243  0.36018183  0.61237592     1.55600
O423        O  0.02236302  0.44149619  0.58292094    -0.75900
C424        C  0.16541635  0.38822203  0.61897010     1.00000
C425        C  0.07415273  0.37958262  0.66558050     0.94900
O426        O  0.04589790  0.39468160  0.65316819    -0.81300
O427        O  0.96392895  0.09065436  0.85818104    -0.80700
C428        C  0.90794321  0.11500945  0.95564123     0.98600
O429        O  0.92377626  0.13216828  0.93864123    -0.69800
O430        O  0.96603599  0.14336922  0.89820997    -0.73400
Al431      Al  0.91798483  0.12515987  0.89897435     1.49000
C432        C  0.99763085  0.13290042  0.90749293     0.93900
O433        O  0.98738925  0.04379009  0.92840777    -0.79600
O434        O  0.90433093  0.01912440  0.89593363    -0.73200
Al435      Al  0.97283638  0.06853097  0.89446811     1.90100
O436        O  0.93627604  0.04001506  0.94769976    -0.72300
O437        O  0.85684194  0.06837040  0.89418717    -0.72100
O438        O  0.89067820  0.08866018  0.94792255    -0.77800
O439        O  0.86574393  0.12112755  0.89781625    -0.76000
O440        O  0.93029433  0.08281500  0.90444259    -1.12100
O441        O  0.91202999  0.11904525  0.85930357    -0.71300
C442        C  0.93569152  0.10577644  0.84576849     0.99400
C443        C  0.97021918  0.03482406  0.94831626     0.95800
Al444      Al  0.89956211  0.05634925  0.91993387     1.55600
O445        O  0.00242142  0.10296314  0.91271006    -0.75900
C446        C  0.84437164  0.09717656  0.89234656     1.00000
C447        C  0.92676955  0.01219813  0.87897331     0.94900
O448        O  0.95245178  0.03135267  0.87514367    -0.81300
C449        C  0.98881371  0.01751103  0.97229014    -0.17400
C450        C  0.99960906  0.00191270  0.99326934     0.06600
C451        C  0.01009127  0.48331315  0.51802736     0.08500
C452        C  0.02089259  0.46772505  0.53901122    -0.18300
C453        C  0.92973185  0.12823940  0.56544750    -0.17400
C454        C  0.92363292  0.12823586  0.53998428     0.06600
C455        C  0.91627844  0.12747363  0.51018057     0.08500
C456        C  0.91113929  0.12416324  0.98486250    -0.18300
C457        C  0.91109992  0.11118036  0.73487551    -0.17400
C458        C  0.91633840  0.10788809  0.76019475     0.06600
C459        C  0.92379940  0.10713439  0.78999559     0.08500
C460        C  0.92995303  0.10712856  0.81545759    -0.18300
C461        C  0.02822413  0.07994218  0.66033986    -0.17400
C462        C  0.05104914  0.05866190  0.65909185     0.06600
C463        C  0.07232461  0.03088902  0.65356346     0.08500
C464        C  0.08305777  0.00493611  0.64546852    -0.18300
C465        C  0.98139524  0.32994323  0.60099952    -0.17400
C466        C  0.95857080  0.30866259  0.60224882     0.06600
C467        C  0.93729635  0.28088913  0.60777863     0.08500
C468        C  0.92656360  0.25493607  0.61587375    -0.18300
C469        C  0.02080537  0.26750909  0.78904992    -0.17400
C470        C  0.01001094  0.25190947  0.76807119     0.06600
C471        C  0.99952976  0.23330895  0.74331349     0.08500
C472        C  0.98872867  0.21772077  0.72232970    -0.18300
C473        C  0.02842230  0.15534803  0.91045996    -0.17400
C474        C  0.05121145  0.17666408  0.90924022     0.06600
C475        C  0.07240103  0.20448915  0.90371221     0.08500
C476        C  0.08304291  0.23046185  0.89559106    -0.18300
C477        C  0.92657228  0.48045892  0.86574881    -0.17400
C478        C  0.93721371  0.45448666  0.85762661     0.06600
C479        C  0.95840313  0.42666233  0.85209682     0.08500
C480        C  0.98119243  0.40534700  0.85087567    -0.18300
C481        C  0.07988936  0.37823777  0.69589033    -0.17400
C482        C  0.08598842  0.37823389  0.72135377     0.06600
C483        C  0.09334299  0.37747200  0.75115722     0.08500
C484        C  0.09848179  0.37416241  0.77647562    -0.18300
C485        C  0.09851672  0.36118794  0.52646132    -0.17400
C486        C  0.09327644  0.35789667  0.50114233     0.06600
C487        C  0.08581373  0.35714286  0.97134131     0.08500
C488        C  0.07965984  0.35713624  0.94587955    -0.18300
C489        C  0.80537217  0.10343098  0.88566271    -0.17400
C490        C  0.77338598  0.11200144  0.88220820     0.06600
C491        C  0.73639466  0.12339120  0.87907667     0.08500
C492        C  0.70440076  0.13193889  0.87562561    -0.18300
C493        C  0.30535350  0.35338868  0.63565991    -0.17400
C494        C  0.27337828  0.36198867  0.63221198     0.06600
C495        C  0.23640356  0.37341680  0.62909185     0.08500
C496        C  0.20442075  0.38199448  0.62564667    -0.18300
C497        C  0.48870209  0.26737840  0.72231604    -0.17400
C498        C  0.49948096  0.25177638  0.74329629     0.06600
C499        C  0.50996097  0.23317329  0.76805214     0.08500
C500        C  0.52077639  0.21758375  0.78903186    -0.18300
C501        C  0.70426540  0.10338764  0.62569905    -0.17400
C502        C  0.73624076  0.11198769  0.62914166     0.06600
C503        C  0.77321544  0.12341591  0.63225548     0.08500
C504        C  0.80519844  0.13199355  0.63569610    -0.18300
C505        C  0.59850331  0.11104374  0.77646287    -0.17400
C506        C  0.59327572  0.10774870  0.75114475     0.06600
C507        C  0.58582554  0.10700074  0.72134480     0.08500
C508        C  0.57967730  0.10700241  0.69588359    -0.18300
C509        C  0.59849503  0.12401367  0.52648282    -0.17400
C510        C  0.59334680  0.12731515  0.50116351     0.06600
C511        C  0.58598257  0.12807684  0.97135898     0.08500
C512        C  0.57987808  0.12808446  0.94589561    -0.18300
C513        C  0.42655049  0.23033615  0.61576236    -0.17400
C514        C  0.43720849  0.20436320  0.60765090     0.06600
C515        C  0.45840891  0.17654050  0.60212805     0.08500
C516        C  0.48120122  0.15522661  0.60090346    -0.18300
C517        C  0.52841806  0.40522639  0.66046829    -0.17400
C518        C  0.55121075  0.42654006  0.65924309     0.06600
C519        C  0.57241099  0.45436251  0.65371868     0.08500
C520        C  0.58306825  0.48033524  0.64560595    -0.18300
C521        C  0.20424279  0.35343221  0.87568396    -0.17400
C522        C  0.23622950  0.36200164  0.87914343     0.06600
C523        C  0.27322140  0.37339018  0.88228102     0.08500
C524        C  0.30521575  0.38193700  0.88573683    -0.18300
C525        C  0.52091012  0.01737919  0.53905235    -0.17400
C526        C  0.51013097  0.00177767  0.51807206     0.06600
C527        C  0.49965141  0.48317441  0.99331596     0.08500
C528        C  0.48883699  0.46758436  0.97233643    -0.18300
C529        C  0.48139717  0.07978836  0.85098199    -0.17400
C530        C  0.45857784  0.05850468  0.85222846     0.06600
C531        C  0.43731494  0.03073046  0.85776802     0.08500
C532        C  0.42659809  0.00478093  0.86587902    -0.18300
C533        C  0.52821873  0.32978947  0.91038759    -0.17400
C534        C  0.55103807  0.30850560  0.90914094     0.06600
C535        C  0.57230015  0.28073161  0.90360106     0.08500
C536        C  0.58301679  0.25478195  0.89548965    -0.18300
C537        C  0.42973801  0.37808202  0.81547285    -0.17400
C538        C  0.42363309  0.37807427  0.79000931     0.06600
C539        C  0.41626820  0.37731278  0.76020479     0.08500
C540        C  0.41111929  0.37401194  0.73488536    -0.18300
C541        C  0.42994486  0.35700530  0.56548540    -0.17400
C542        C  0.42379586  0.35700326  0.54002427     0.06600
C543        C  0.41634355  0.35775021  0.51022421     0.08500
C544        C  0.41111388  0.36104383  0.98490610    -0.18300
O545        O  0.45233387  0.95381805  0.37516724    -0.80700
C546        C  0.40783841  0.87018339  0.45567844     0.98600
O547        O  0.39056401  0.89653220  0.44797481    -0.69800
O548        O  0.43625873  0.94510359  0.44779086    -0.73400
Al549      Al  0.39949632  0.92886674  0.42001792     1.49000
C550        C  0.47019478  0.95029816  0.44836608     0.93900
O551        O  0.50225533  0.88217527  0.41270778    -0.79600
O552        O  0.41180163  0.86619572  0.35932303    -0.73200
Al553      Al  0.47270220  0.91663172  0.39448121     1.90100
O554        O  0.46582523  0.84180348  0.39818858    -0.72300
O555        O  0.36555954  0.86415589  0.39786846    -0.72100
O556        O  0.42362786  0.85302049  0.43865664    -0.77800
O557        O  0.35674586  0.91692992  0.39426748    -0.76000
O558        O  0.43016346  0.90238279  0.40447937    -1.12100
O559        O  0.40432844  0.96612765  0.39606487    -0.71300
C560        C  0.42672953  0.97302451  0.37906649     0.99400
C561        C  0.49743643  0.85224634  0.40746461     0.95800
Al562      Al  0.41779354  0.86005474  0.39899286     1.55600
O563        O  0.48731289  0.94136696  0.42841788    -0.75900
C564        C  0.34422651  0.88813926  0.39241538     1.00000
C565        C  0.43547844  0.87943324  0.34578393     0.94900
O566        O  0.46374596  0.89451507  0.35819377    -0.81300
O567        O  0.54571246  0.59051958  0.15316105    -0.80700
C568        C  0.60169995  0.61487990  0.05571023     0.98600
O569        O  0.58585375  0.63204187  0.07270117    -0.69800
O570        O  0.54359269  0.64325433  0.11313723    -0.73400
Al571      Al  0.59164474  0.62505135  0.11237106     1.49000
C572        C  0.51199861  0.63278264  0.10385884     0.93900
O573        O  0.52227653  0.54368717  0.08291656    -0.79600
O574        O  0.60536282  0.51902352  0.11546167    -0.73200
Al575      Al  0.53680793  0.56840984  0.11686831     1.90100
O576        O  0.57342990  0.53986736  0.06367986    -0.72300
O577        O  0.65281895  0.56829686  0.11719869    -0.72100
O578        O  0.61898594  0.58854387  0.06344352    -0.77800
O579        O  0.64388557  0.62104558  0.11352984    -0.76000
O580        O  0.57935583  0.58270073  0.10691150    -1.12100
O581        O  0.59759501  0.61894290  0.15204162    -0.71300
C582        C  0.57394048  0.60565627  0.16557403     0.99400
C583        C  0.53947826  0.53469633  0.06303320     0.95800
Al584      Al  0.61011714  0.55623975  0.09144593     1.55600
O585        O  0.50721696  0.60284630  0.09863435    -0.75900
C586        C  0.66527170  0.59710903  0.11901936     1.00000
C587        C  0.58288460  0.51207920  0.13238702     0.94900
O588        O  0.55717522  0.53121864  0.13618281    -0.81300
O589        O  0.46390775  0.84052193  0.10820862    -0.80700
C590        C  0.40791448  0.86487952  0.20565758     0.98600
O591        O  0.42376243  0.88204184  0.18866761    -0.69800
O592        O  0.46602636  0.89325520  0.14823357    -0.73400
Al593      Al  0.41797353  0.87505253  0.14899766     1.49000
C594        C  0.49761977  0.88278313  0.15751258     0.93900
O595        O  0.48733802  0.79368679  0.17845230    -0.79600
O596        O  0.40425433  0.76902425  0.14590557    -0.73200
Al597      Al  0.47280947  0.81841093  0.14450097     1.90100
O598        O  0.43618374  0.78986838  0.19768818    -0.72300
O599        O  0.35679873  0.81829787  0.14416596    -0.72100
O600        O  0.39062735  0.83854442  0.19792285    -0.77800
O601        O  0.36573228  0.87104663  0.14783658    -0.76000
O602        O  0.43026126  0.83270172  0.15445674    -1.12100
O603        O  0.41202551  0.86894532  0.10932703    -0.71300
C604        C  0.43568036  0.85565892  0.09579515     0.99400
C605        C  0.47013514  0.78469636  0.19833531     0.95800
Al606      Al  0.39949833  0.80624058  0.16992078     1.55600
O607        O  0.50240046  0.85284655  0.16273674    -0.75900
C608        C  0.34434645  0.84711017  0.14234442     1.00000
C609        C  0.42673296  0.76208050  0.12898054     0.94900
O610        O  0.45244212  0.78122064  0.12518493    -0.81300
O611        O  0.55727971  0.70381973  0.38619997    -0.80700
C612        C  0.60177665  0.62018474  0.30568996     0.98600
O613        O  0.61904939  0.64653484  0.31339293    -0.69800
O614        O  0.57335554  0.69510631  0.31357827    -0.73400
Al615      Al  0.61011855  0.67886884  0.34135047     1.49000
C616        C  0.53941901  0.70029848  0.31300232     0.93900
O617        O  0.50735985  0.63217462  0.34866151    -0.79600
O618        O  0.59781436  0.61619772  0.40204551    -0.73200
Al619      Al  0.53691253  0.66663214  0.36688707     1.90100
O620        O  0.54379080  0.59180387  0.36318062    -0.72300
O621        O  0.64405573  0.61415787  0.36349927    -0.72100
O622        O  0.58598755  0.60302161  0.32271196    -0.77800
O623        O  0.65287020  0.66693183  0.36709964    -0.76000
O624        O  0.57945167  0.65238422  0.35688902    -1.12100
O625        O  0.60528747  0.71612889  0.36530466    -0.71300
C626        C  0.58288517  0.72302581  0.38230195     0.99400
C627        C  0.51217928  0.60224603  0.35390477     0.95800
Al628      Al  0.59182204  0.61005633  0.36237571     1.55600
O629        O  0.52230074  0.69136583  0.33295001    -0.75900
C630        C  0.66538956  0.63814125  0.36895084     1.00000
C631        C  0.57413768  0.62943510  0.41558464     0.94900
O632        O  0.54586998  0.64451657  0.40317482    -0.81300
O633        O  0.04568534  0.84065932  0.40315615    -0.80700
C634        C  0.10167655  0.86501018  0.30569713     0.98600
O635        O  0.08584173  0.88216903  0.32269559    -0.69800
O636        O  0.04357936  0.89337055  0.36312474    -0.73400
Al637      Al  0.09163132  0.87516231  0.36236266     1.49000
C638        C  0.01198450  0.88290029  0.35384217     0.93900
O639        O  0.02222947  0.79378807  0.33293230    -0.79600
O640        O  0.10528312  0.76912605  0.36540447    -0.73200
Al641      Al  0.03678034  0.81853267  0.36687048     1.90100
O642        O  0.07334160  0.79001830  0.31363817    -0.72300
O643        O  0.15277308  0.81837214  0.36715407    -0.72100
O644        O  0.11894232  0.83866200  0.31341737    -0.77800
O645        O  0.14387273  0.87112948  0.36352309    -0.76000
O646        O  0.07932211  0.83281719  0.35689559    -1.12100
O647        O  0.09758455  0.86905002  0.40203360    -0.71300
C648        C  0.07392231  0.85578226  0.41556851     0.99400
C649        C  0.03939905  0.78482407  0.31302303     0.95800
Al650      Al  0.11005470  0.80635131  0.34140533     1.55600
O651        O  0.00719487  0.85296274  0.34862590    -0.75900
C652        C  0.16524383  0.84717815  0.36899535     1.00000
C653        C  0.08284630  0.76220113  0.38236673     0.94900
O654        O  0.05716636  0.78135698  0.38619802    -0.81300
O655        O  0.95230945  0.70397766  0.12516693    -0.80700
C656        C  0.90781506  0.62030943  0.20564352     0.98600
O657        O  0.89051578  0.64664439  0.19793053    -0.69800
O658        O  0.93617017  0.69524809  0.19774886    -0.73400
Al659      Al  0.89943394  0.67898408  0.16996997     1.49000
C660        C  0.97011166  0.70043471  0.19834948     0.93900
O661        O  0.00223753  0.63232014  0.16268079    -0.79600
O662        O  0.91179964  0.61632341  0.10929245    -0.73200
Al663      Al  0.97267121  0.66677951  0.14446684     1.90100
O664        O  0.96582397  0.59194310  0.14815417    -0.72300
O665        O  0.86555243  0.61425141  0.14783544    -0.72100
O666        O  0.92362135  0.60315191  0.18862702    -0.77800
O667        O  0.85670302  0.66701833  0.14420914    -0.76000
O668        O  0.93013087  0.65251400  0.15444777    -1.12100
O669        O  0.90425095  0.71624883  0.14601426    -0.71300
C670        C  0.92668311  0.72316905  0.12904561     0.99400
C671        C  0.99743236  0.60239204  0.15742771     0.95800
Al672      Al  0.91778729  0.61018011  0.14896137     1.55600
O673        O  0.98725750  0.69149436  0.17841880    -0.75900
C674        C  0.84420352  0.63822075  0.14236920     1.00000
C675        C  0.93546803  0.62958333  0.09575762     0.94900
O676        O  0.96372296  0.64468166  0.10817054    -0.81300
O677        O  0.05731085  0.95397831  0.13617302    -0.80700
C678        C  0.10180353  0.87031474  0.05569394     0.98600
O679        O  0.11910400  0.89664900  0.06340818    -0.69800
O680        O  0.07345123  0.94525310  0.06359220    -0.73400
Al681      Al  0.11018696  0.92898698  0.09137032     1.49000
C682        C  0.03950952  0.95043866  0.06299111     0.93900
O683        O  0.00738243  0.88232133  0.09865789    -0.79600
O684        O  0.09782071  0.86632335  0.15204503    -0.73200
Al685      Al  0.03694914  0.91678047  0.11687238     1.90100
O686        O  0.04379588  0.84194432  0.11318332    -0.72300
O687        O  0.14406728  0.86425301  0.11350156    -0.72100
O688        O  0.08599744  0.85315598  0.07270999    -0.77800
O689        O  0.15291741  0.91701966  0.11713084    -0.76000
O690        O  0.07948932  0.90251591  0.10689114    -1.12100
O691        O  0.10537102  0.96625005  0.11532774    -0.71300
C692        C  0.08293832  0.97316961  0.13229581     0.99400
C693        C  0.01218750  0.85239324  0.10391071     0.95800
Al694      Al  0.09183242  0.86018186  0.11237589     1.55600
O695        O  0.02236299  0.94149618  0.08292090    -0.75900
C696        C  0.16541634  0.88822202  0.11897012     1.00000
C697        C  0.07415276  0.87958271  0.16558026     0.94900
O698        O  0.04589792  0.89468150  0.15316817    -0.81300
O699        O  0.96392888  0.59065439  0.35818108    -0.80700
C700        C  0.90794317  0.61500953  0.45564121     0.98600
O701        O  0.92377629  0.63216833  0.43864127    -0.69800
O702        O  0.96603604  0.64336919  0.39820997    -0.73400
Al703      Al  0.91798488  0.62515989  0.39897438     1.49000
C704        C  0.99763101  0.63290036  0.40749292     0.93900
O705        O  0.98738915  0.54379015  0.42840774    -0.79600
O706        O  0.90433092  0.51912441  0.39593363    -0.73200
Al707      Al  0.97283633  0.56853103  0.39446816     1.90100
O708        O  0.93627603  0.54001507  0.44769983    -0.72300
O709        O  0.85684187  0.56837038  0.39418719    -0.72100
O710        O  0.89067821  0.58866022  0.44792256    -0.77800
O711        O  0.86574400  0.62112751  0.39781622    -0.76000
O712        O  0.93029439  0.58281510  0.40444268    -1.12100
O713        O  0.91202995  0.61904520  0.35930354    -0.71300
C714        C  0.93569137  0.60577643  0.34576863     0.99400
C715        C  0.97021915  0.53482409  0.44831626     0.95800
Al716      Al  0.89956212  0.55634927  0.41993388     1.55600
O717        O  0.00242144  0.60296313  0.41271009    -0.75900
C718        C  0.84437159  0.59717651  0.39234661     1.00000
C719        C  0.92676954  0.51219810  0.37897336     0.94900
O720        O  0.95245176  0.53135274  0.37514374    -0.81300
C721        C  0.98881367  0.51751109  0.47229007    -0.17400
C722        C  0.99960895  0.50191265  0.49326942     0.06600
C723        C  0.01009118  0.98331315  0.01802744     0.08500
C724        C  0.02089267  0.96772516  0.03901119    -0.18300
C725        C  0.92973191  0.62823943  0.06544753    -0.17400
C726        C  0.92363310  0.62823587  0.03998430     0.06600
C727        C  0.91627846  0.62747351  0.01018055     0.08500
C728        C  0.91113923  0.62416340  0.48486248    -0.18300
C729        C  0.91109999  0.61118040  0.23487567    -0.17400
C730        C  0.91633836  0.60788816  0.26019456     0.06600
C731        C  0.92379947  0.60713439  0.28999579     0.08500
C732        C  0.92995302  0.60712855  0.31545747    -0.18300
C733        C  0.02822411  0.57994221  0.16033990    -0.17400
C734        C  0.05104933  0.55866188  0.15909198     0.06600
C735        C  0.07232451  0.53088906  0.15356340     0.08500
C736        C  0.08305787  0.50493604  0.14546858    -0.18300
C737        C  0.98139537  0.82994323  0.10099952    -0.17400
C738        C  0.95857076  0.80866257  0.10224885     0.06600
C739        C  0.93729641  0.78088924  0.10777874     0.08500
C740        C  0.92656371  0.75493602  0.11587374    -0.18300
C741        C  0.02080529  0.76750907  0.28904989    -0.17400
C742        C  0.01001094  0.75190945  0.26807120     0.06600
C743        C  0.99952972  0.73330889  0.24331345     0.08500
C744        C  0.98872871  0.71772073  0.22232971    -0.18300
C745        C  0.02842232  0.65534803  0.41045995    -0.17400
C746        C  0.05121150  0.67666418  0.40924013     0.06600
C747        C  0.07240118  0.70448912  0.40371232     0.08500
C748        C  0.08304289  0.73046190  0.39559099    -0.18300
C749        C  0.92657212  0.98045891  0.36574879    -0.17400
C750        C  0.93721359  0.95448668  0.35762652     0.06600
C751        C  0.95840310  0.92666235  0.35209683     0.08500
C752        C  0.98119236  0.90534693  0.35087564    -0.18300
C753        C  0.07988934  0.87823775  0.19589063    -0.17400
C754        C  0.08598842  0.87823385  0.22135339     0.06600
C755        C  0.09334298  0.87747188  0.25115757     0.08500
C756        C  0.09848180  0.87416252  0.27647530    -0.18300
C757        C  0.09851668  0.86118794  0.02646138    -0.17400
C758        C  0.09327647  0.85789660  0.00114228     0.06600
C759        C  0.08581378  0.85714284  0.47134123     0.08500
C760        C  0.07965975  0.85713620  0.44587958    -0.18300
C761        C  0.80537218  0.60343096  0.38566279    -0.17400
C762        C  0.77338596  0.61200145  0.38220823     0.06600
C763        C  0.73639469  0.62339121  0.37907676     0.08500
C764        C  0.70440074  0.63193886  0.37562549    -0.18300
C765        C  0.30535348  0.85338868  0.13565982    -0.17400
C766        C  0.27337822  0.86198867  0.13221196     0.06600
C767        C  0.23640359  0.87341687  0.12909178     0.08500
C768        C  0.20442077  0.88199452  0.12564658    -0.18300
C769        C  0.48870216  0.76737843  0.22231614    -0.17400
C770        C  0.49948090  0.75177639  0.24329617     0.06600
C771        C  0.50996109  0.73317329  0.26805217     0.08500
C772        C  0.52077623  0.71758379  0.28903181    -0.18300
C773        C  0.70426541  0.60338753  0.12569893    -0.17400
C774        C  0.73624074  0.61198762  0.12914155     0.06600
C775        C  0.77321543  0.62341585  0.13225551     0.08500
C776        C  0.80519842  0.63199350  0.13569608    -0.18300
C777        C  0.59850326  0.61104365  0.27646290    -0.17400
C778        C  0.59327575  0.60774873  0.25114479     0.06600
C779        C  0.58582542  0.60700077  0.22134483     0.08500
C780        C  0.57967715  0.60700239  0.19588363    -0.18300
C781        C  0.59849502  0.62401372  0.02648276    -0.17400
C782        C  0.59334673  0.62731515  0.00116355     0.06600
C783        C  0.58598275  0.62807670  0.47135899     0.08500
C784        C  0.57987817  0.62808446  0.44589557    -0.18300
C785        C  0.42655059  0.73033620  0.11576234    -0.17400
C786        C  0.43720850  0.70436320  0.10765090     0.06600
C787        C  0.45840892  0.67654053  0.10212795     0.08500
C788        C  0.48120124  0.65522660  0.10090349    -0.18300
C789        C  0.52841800  0.90522647  0.16046821    -0.17400
C790        C  0.55121076  0.92654012  0.15924297     0.06600
C791        C  0.57241093  0.95436251  0.15371858     0.08500
C792        C  0.58306827  0.98033525  0.14560585    -0.18300
C793        C  0.20424295  0.85343228  0.37568387    -0.17400
C794        C  0.23622928  0.86200167  0.37914334     0.06600
C795        C  0.27322158  0.87339016  0.38228104     0.08500
C796        C  0.30521557  0.88193691  0.38573675    -0.18300
C797        C  0.52090993  0.51737910  0.03905236    -0.17400
C798        C  0.51013088  0.50177758  0.01807207     0.06600
C799        C  0.49965141  0.98317441  0.49331597     0.08500
C800        C  0.48883702  0.96758435  0.47233640    -0.18300
C801        C  0.48139719  0.57978836  0.35098210    -0.17400
C802        C  0.45857781  0.55850464  0.35222849     0.06600
C803        C  0.43731507  0.53073047  0.35776813     0.08500
C804        C  0.42659804  0.50478091  0.36587910    -0.18300
C805        C  0.52821881  0.82978940  0.41038753    -0.17400
C806        C  0.55103800  0.80850557  0.40914105     0.06600
C807        C  0.57230018  0.78073152  0.40360101     0.08500
C808        C  0.58301674  0.75478203  0.39548972    -0.18300
C809        C  0.42973809  0.87808207  0.31547280    -0.17400
C810        C  0.42363313  0.87807428  0.29000941     0.06600
C811        C  0.41626807  0.87731273  0.26020473     0.08500
C812        C  0.41111940  0.87401186  0.23488542    -0.18300
C813        C  0.42994479  0.85700532  0.06548543    -0.17400
C814        C  0.42379595  0.85700325  0.04002429     0.06600
C815        C  0.41634362  0.85775016  0.01022424     0.08500
C816        C  0.41111381  0.86104377  0.48490603    -0.18300
O817        O  0.45233377  0.95381803  0.87516722    -0.80700
C818        C  0.40783834  0.87018346  0.95567845     0.98600
O819        O  0.39056404  0.89653224  0.94797478    -0.69800
O820        O  0.43625872  0.94510363  0.94779090    -0.73400
Al821      Al  0.39949629  0.92886680  0.92001794     1.49000
C822        C  0.47019485  0.95029819  0.94836611     0.93900
O823        O  0.50225524  0.88217527  0.91270769    -0.79600
O824        O  0.41180155  0.86619567  0.85932300    -0.73200
Al825      Al  0.47270215  0.91663175  0.89448116     1.90100
O826        O  0.46582515  0.84180346  0.89818856    -0.72300
O827        O  0.36555951  0.86415591  0.89786850    -0.72100
O828        O  0.42362786  0.85302052  0.93865671    -0.77800
O829        O  0.35674580  0.91692994  0.89426751    -0.76000
O830        O  0.43016346  0.90238290  0.90447942    -1.12100
O831        O  0.40432837  0.96612775  0.89606484    -0.71300
C832        C  0.42672928  0.97302444  0.87906649     0.99400
C833        C  0.49743637  0.85224649  0.90746460     0.95800
Al834      Al  0.41779353  0.86005483  0.89899289     1.55600
O835        O  0.48731288  0.94136702  0.92841785    -0.75900
C836        C  0.34422645  0.88813919  0.89241533     1.00000
C837        C  0.43547838  0.87943319  0.84578382     0.94900
O838        O  0.46374583  0.89451505  0.85819371    -0.81300
O839        O  0.54571253  0.59051954  0.65316106    -0.80700
C840        C  0.60170002  0.61487959  0.55571016     0.98600
O841        O  0.58585368  0.63204174  0.57270117    -0.69800
O842        O  0.54359268  0.64325429  0.61313722    -0.73400
Al843      Al  0.59164476  0.62505132  0.61237099     1.49000
C844        C  0.51199876  0.63278269  0.60385881     0.93900
O845        O  0.52227658  0.54368708  0.58291663    -0.79600
O846        O  0.60536285  0.51902346  0.61546174    -0.73200
Al847      Al  0.53680797  0.56840985  0.61686832     1.90100
O848        O  0.57342995  0.53986729  0.56367987    -0.72300
O849        O  0.65281892  0.56829687  0.61719875    -0.72100
O850        O  0.61898595  0.58854374  0.56344354    -0.77800
O851        O  0.64388554  0.62104559  0.61352969    -0.76000
O852        O  0.57935590  0.58270065  0.60691147    -1.12100
O853        O  0.59759501  0.61894296  0.65204157    -0.71300
C854        C  0.57394069  0.60565634  0.66557400     0.99400
C855        C  0.53947830  0.53469624  0.56303327     0.95800
Al856      Al  0.61011722  0.55623964  0.59144594     1.55600
O857        O  0.50721694  0.60284631  0.59863436    -0.75900
C858        C  0.66527152  0.59710921  0.61901938     1.00000
C859        C  0.58288464  0.51207920  0.63238708     0.94900
O860        O  0.55717519  0.53121866  0.63618280    -0.81300
O861        O  0.46390770  0.84052186  0.60820863    -0.80700
C862        C  0.40791442  0.86487959  0.70565758     0.98600
O863        O  0.42376234  0.88204195  0.68866760    -0.69800
O864        O  0.46602638  0.89325513  0.64823356    -0.73400
Al865      Al  0.41797347  0.87505258  0.64899761     1.49000
C866        C  0.49761985  0.88278288  0.65751255     0.93900
O867        O  0.48733797  0.79368676  0.67845224    -0.79600
O868        O  0.40425438  0.76902420  0.64590564    -0.73200
Al869      Al  0.47280939  0.81841084  0.64450092     1.90100
O870        O  0.43618376  0.78986848  0.69768824    -0.72300
O871        O  0.35679863  0.81829785  0.64416593    -0.72100
O872        O  0.39062733  0.83854445  0.69792276    -0.77800
O873        O  0.36573225  0.87104664  0.64783648    -0.76000
O874        O  0.43026114  0.83270176  0.65445667    -1.12100
O875        O  0.41202547  0.86894531  0.60932699    -0.71300
C876        C  0.43568041  0.85565897  0.59579518     0.99400
C877        C  0.47013516  0.78469629  0.69833536     0.95800
Al878      Al  0.39949831  0.80624056  0.66992078     1.55600
O879        O  0.50240048  0.85284645  0.66273670    -0.75900
C880        C  0.34434647  0.84711004  0.64234433     1.00000
C881        C  0.42673296  0.76208039  0.62898051     0.94900
O882        O  0.45244203  0.78122051  0.62518479    -0.81300
O883        O  0.55727980  0.70381961  0.88619997    -0.80700
C884        C  0.60177687  0.62018488  0.80568995     0.98600
O885        O  0.61904943  0.64653487  0.81339287    -0.69800
O886        O  0.57335552  0.69510622  0.81357818    -0.73400
Al887      Al  0.61011850  0.67886878  0.84135040     1.49000
C888        C  0.53941905  0.70029851  0.81300230     0.93900
O889        O  0.50736003  0.63217458  0.84866145    -0.79600
O890        O  0.59781434  0.61619773  0.90204550    -0.73200
Al891      Al  0.53691257  0.66663205  0.86688706     1.90100
O892        O  0.54379083  0.59180378  0.86318063    -0.72300
O893        O  0.64405577  0.61415789  0.86349928    -0.72100
O894        O  0.58598766  0.60302162  0.82271200    -0.77800
O895        O  0.65287021  0.66693185  0.86709957    -0.76000
O896        O  0.57945162  0.65238410  0.85688895    -1.12100
O897        O  0.60528737  0.71612885  0.86530455    -0.71300
C898        C  0.58288525  0.72302576  0.88230183     0.99400
C899        C  0.51217942  0.60224593  0.85390475     0.95800
Al900      Al  0.59182205  0.61005630  0.86237571     1.55600
O901        O  0.52230079  0.69136573  0.83294999    -0.75900
C902        C  0.66538956  0.63814126  0.86895084     1.00000
C903        C  0.57413753  0.62943509  0.91558463     0.94900
O904        O  0.54586997  0.64451651  0.90317489    -0.81300
O905        O  0.04568527  0.84065937  0.90315615    -0.80700
C906        C  0.10167663  0.86501034  0.80569699     0.98600
O907        O  0.08584174  0.88216904  0.82269567    -0.69800
O908        O  0.04357937  0.89337057  0.86312476    -0.73400
Al909      Al  0.09163134  0.87516232  0.86236271     1.49000
C910        C  0.01198474  0.88290049  0.85384222     0.93900
O911        O  0.02222959  0.79378801  0.83293240    -0.79600
O912        O  0.10528308  0.76912601  0.86540447    -0.73200
Al913      Al  0.03678035  0.81853269  0.86687054     1.90100
O914        O  0.07334160  0.79001832  0.81363815    -0.72300
O915        O  0.15277300  0.81837212  0.86715413    -0.72100
O916        O  0.11894234  0.83866199  0.81341744    -0.77800
O917        O  0.14387271  0.87112948  0.86352310    -0.76000
O918        O  0.07932210  0.83281716  0.85689570    -1.12100
O919        O  0.09758454  0.86904999  0.90203365    -0.71300
C920        C  0.07392227  0.85578224  0.91556855     0.99400
C921        C  0.03939919  0.78482399  0.81302305     0.95800
Al922      Al  0.11005469  0.80635131  0.84140537     1.55600
O923        O  0.00719487  0.85296281  0.84862588    -0.75900
C924        C  0.16524378  0.84717809  0.86899544     1.00000
C925        C  0.08284632  0.76220102  0.88236678     0.94900
O926        O  0.05716628  0.78135695  0.88619802    -0.81300
O927        O  0.95230946  0.70397765  0.62516701    -0.80700
C928        C  0.90781504  0.62030933  0.70564368     0.98600
O929        O  0.89051578  0.64664436  0.69793050    -0.69800
O930        O  0.93617012  0.69524808  0.69774886    -0.73400
Al931      Al  0.89943391  0.67898401  0.66996997     1.49000
C932        C  0.97011170  0.70043481  0.69834959     0.93900
O933        O  0.00223741  0.63232016  0.66268070    -0.79600
O934        O  0.91179955  0.61632351  0.60929240    -0.73200
Al935      Al  0.97267117  0.66677951  0.64446685     1.90100
O936        O  0.96582396  0.59194305  0.64815414    -0.72300
O937        O  0.86555240  0.61425135  0.64783542    -0.72100
O938        O  0.92362135  0.60315182  0.68862705    -0.77800
O939        O  0.85670306  0.66701829  0.64420912    -0.76000
O940        O  0.93013085  0.65251394  0.65444776    -1.12100
O941        O  0.90425091  0.71624874  0.64601429    -0.71300
C942        C  0.92668297  0.72316908  0.62904570     0.99400
C943        C  0.99743221  0.60239208  0.65742770     0.95800
Al944      Al  0.91778726  0.61018005  0.64896136     1.55600
O945        O  0.98725755  0.69149439  0.67841885    -0.75900
C946        C  0.84420354  0.63822056  0.64236925     1.00000
C947        C  0.93546794  0.62958338  0.59575759     0.94900
O948        O  0.96372289  0.64468173  0.60817053    -0.81300
O949        O  0.05731087  0.95397842  0.63617310    -0.80700
C950        C  0.10180339  0.87031466  0.55569398     0.98600
O951        O  0.11910400  0.89664893  0.56340813    -0.69800
O952        O  0.07345111  0.94525305  0.56359212    -0.73400
Al953      Al  0.11018694  0.92898705  0.59137025     1.49000
C954        C  0.03950929  0.95043855  0.56299103     0.93900
O955        O  0.00738232  0.88232145  0.59865796    -0.79600
O956        O  0.09782064  0.86632338  0.65204498    -0.73200
Al957      Al  0.03694914  0.91678059  0.61687245     1.90100
O958        O  0.04379580  0.84194436  0.61318322    -0.72300
O959        O  0.14406725  0.86425301  0.61350160    -0.72100
O960        O  0.08599733  0.85315597  0.57270996    -0.77800
O961        O  0.15291733  0.91701971  0.61713083    -0.76000
O962        O  0.07948937  0.90251602  0.60689119    -1.12100
O963        O  0.10537099  0.96625014  0.61532767    -0.71300
C964        C  0.08293824  0.97316972  0.63229588     0.99400
C965        C  0.01218736  0.85239328  0.60391067     0.95800
Al966      Al  0.09183236  0.86018189  0.61237590     1.55600
O967        O  0.02236296  0.94149629  0.58292098    -0.75900
C968        C  0.16541627  0.88822205  0.61897010     1.00000
C969        C  0.07415267  0.87958279  0.66558049     0.94900
O970        O  0.04589783  0.89468157  0.65316820    -0.81300
O971        O  0.96392896  0.59065439  0.85818105    -0.80700
C972        C  0.90794327  0.61500965  0.95564121     0.98600
O973        O  0.92377628  0.63216836  0.93864124    -0.69800
O974        O  0.96603604  0.64336924  0.89821000    -0.73400
Al975      Al  0.91798490  0.62515991  0.89897434     1.49000
C976        C  0.99763110  0.63290036  0.90749295     0.93900
O977        O  0.98738925  0.54379010  0.92840780    -0.79600
O978        O  0.90433090  0.51912447  0.89593363    -0.73200
Al979      Al  0.97283642  0.56853096  0.89446812     1.90100
O980        O  0.93627603  0.54001508  0.94769977    -0.72300
O981        O  0.85684190  0.56837044  0.89418718    -0.72100
O982        O  0.89067816  0.58866027  0.94792253    -0.77800
O983        O  0.86574397  0.62112757  0.89781620    -0.76000
O984        O  0.93029442  0.58281507  0.90444261    -1.12100
O985        O  0.91203001  0.61904528  0.85930354    -0.71300
C986        C  0.93569156  0.60577648  0.84576848     0.99400
C987        C  0.97021934  0.53482415  0.94831624     0.95800
Al988      Al  0.89956215  0.55634930  0.91993387     1.55600
O989        O  0.00242143  0.60296309  0.91271007    -0.75900
C990        C  0.84437167  0.59717650  0.89234653     1.00000
C991        C  0.92676971  0.51219817  0.87897326     0.94900
O992        O  0.95245180  0.53135265  0.87514371    -0.81300
C993        C  0.98881374  0.51751112  0.97229021    -0.17400
C994        C  0.99960904  0.50191280  0.99326936     0.06600
C995        C  0.01009124  0.98331314  0.51802739     0.08500
C996        C  0.02089264  0.96772513  0.53901120    -0.18300
C997        C  0.92973190  0.62823948  0.56544747    -0.17400
C998        C  0.92363298  0.62823595  0.53998431     0.06600
C999        C  0.91627849  0.62747360  0.51018054     0.08500
C1000       C  0.91113924  0.62416326  0.98486250    -0.18300
C1001       C  0.91109988  0.61118036  0.73487549    -0.17400
C1002       C  0.91633847  0.60788808  0.76019477     0.06600
C1003       C  0.92379949  0.60713445  0.78999558     0.08500
C1004       C  0.92995310  0.60712855  0.81545761    -0.18300
C1005       C  0.02822419  0.57994228  0.66033987    -0.17400
C1006       C  0.05104920  0.55866200  0.65909186     0.06600
C1007       C  0.07232458  0.53088908  0.65356342     0.08500
C1008       C  0.08305777  0.50493614  0.64546849    -0.18300
C1009       C  0.98139534  0.82994337  0.60099953    -0.17400
C1010       C  0.95857071  0.80866258  0.60224881     0.06600
C1011       C  0.93729641  0.78088926  0.60777858     0.08500
C1012       C  0.92656361  0.75493604  0.61587379    -0.18300
C1013       C  0.02080532  0.76750920  0.78904993    -0.17400
C1014       C  0.01001099  0.75190943  0.76807114     0.06600
C1015       C  0.99952973  0.73330903  0.74331352     0.08500
C1016       C  0.98872865  0.71772076  0.72232968    -0.18300
C1017       C  0.02842227  0.65534798  0.91045997    -0.17400
C1018       C  0.05121158  0.67666422  0.90924018     0.06600
C1019       C  0.07240105  0.70448901  0.90371219     0.08500
C1020       C  0.08304295  0.73046200  0.89559102    -0.18300
C1021       C  0.92657229  0.98045886  0.86574877    -0.17400
C1022       C  0.93721375  0.95448670  0.85762658     0.06600
C1023       C  0.95840318  0.92666228  0.85209681     0.08500
C1024       C  0.98119247  0.90534708  0.85087568    -0.18300
C1025       C  0.07988939  0.87823785  0.69589032    -0.17400
C1026       C  0.08598848  0.87823394  0.72135376     0.06600
C1027       C  0.09334304  0.87747199  0.75115721     0.08500
C1028       C  0.09848182  0.87416250  0.77647562    -0.18300
C1029       C  0.09851665  0.86118793  0.52646131    -0.17400
C1030       C  0.09327650  0.85789677  0.50114233     0.06600
C1031       C  0.08581378  0.85714295  0.97134130     0.08500
C1032       C  0.07965964  0.85713620  0.94587954    -0.18300
C1033       C  0.80537212  0.60343103  0.88566268    -0.17400
C1034       C  0.77338602  0.61200140  0.88220820     0.06600
C1035       C  0.73639460  0.62339123  0.87907666     0.08500
C1036       C  0.70440083  0.63193895  0.87562561    -0.18300
C1037       C  0.30535342  0.85338865  0.63565989    -0.17400
C1038       C  0.27337824  0.86198849  0.63221198     0.06600
C1039       C  0.23640356  0.87341691  0.62909187     0.08500
C1040       C  0.20442080  0.88199449  0.62564669    -0.18300
C1041       C  0.48870209  0.76737848  0.72231613    -0.17400
C1042       C  0.49948099  0.75177648  0.74329630     0.06600
C1043       C  0.50996105  0.73317325  0.76805213     0.08500
C1044       C  0.52077630  0.71758379  0.78903182    -0.18300
C1045       C  0.70426538  0.60338765  0.62569904    -0.17400
C1046       C  0.73624060  0.61198759  0.62914163     0.06600
C1047       C  0.77321543  0.62341593  0.63225548     0.08500
C1048       C  0.80519835  0.63199348  0.63569609    -0.18300
C1049       C  0.59850329  0.61104377  0.77646285    -0.17400
C1050       C  0.59327577  0.60774876  0.75114477     0.06600
C1051       C  0.58582532  0.60700088  0.72134477     0.08500
C1052       C  0.57967730  0.60700255  0.69588360    -0.18300
C1053       C  0.59849512  0.62401356  0.52648281    -0.17400
C1054       C  0.59334676  0.62731510  0.50116352     0.06600
C1055       C  0.58598263  0.62807680  0.97135900     0.08500
C1056       C  0.57987812  0.62808431  0.94589559    -0.18300
C1057       C  0.42655057  0.73033604  0.61576238    -0.17400
C1058       C  0.43720858  0.70436321  0.60765090     0.06600
C1059       C  0.45840893  0.67654042  0.60212806     0.08500
C1060       C  0.48120122  0.65522657  0.60090347    -0.18300
C1061       C  0.52841808  0.90522642  0.66046827    -0.17400
C1062       C  0.55121070  0.92653995  0.65924304     0.06600
C1063       C  0.57241097  0.95436251  0.65371859     0.08500
C1064       C  0.58306811  0.98033520  0.64560591    -0.18300
C1065       C  0.20424297  0.85343220  0.87568398    -0.17400
C1066       C  0.23622924  0.86200172  0.87914342     0.06600
C1067       C  0.27322161  0.87339012  0.88228104     0.08500
C1068       C  0.30521556  0.88193697  0.88573682    -0.18300
C1069       C  0.52090989  0.51737922  0.53905230    -0.17400
C1070       C  0.51013096  0.50177770  0.51807210     0.06600
C1071       C  0.49965144  0.98317447  0.99331605     0.08500
C1072       C  0.48883691  0.96758440  0.97233632    -0.18300
C1073       C  0.48139723  0.57978831  0.85098201    -0.17400
C1074       C  0.45857777  0.55850458  0.85222849     0.06600
C1075       C  0.43731498  0.53073040  0.85776802     0.08500
C1076       C  0.42659805  0.50478087  0.86587903    -0.18300
C1077       C  0.52821886  0.82978944  0.91038761    -0.17400
C1078       C  0.55103783  0.80850574  0.90914097     0.06600
C1079       C  0.57230021  0.78073147  0.90360106     0.08500
C1080       C  0.58301678  0.75478212  0.89548970    -0.18300
C1081       C  0.42973809  0.87808210  0.81547286    -0.17400
C1082       C  0.42363306  0.87807417  0.79000931     0.06600
C1083       C  0.41626814  0.87731286  0.76020481     0.08500
C1084       C  0.41111932  0.87401192  0.73488535    -0.18300
C1085       C  0.42994475  0.85700531  0.56548541    -0.17400
C1086       C  0.42379593  0.85700324  0.54002426     0.06600
C1087       C  0.41634345  0.85775017  0.51022420     0.08500
C1088       C  0.41111392  0.86104394  0.98490611    -0.18300
loop_ 
_geom_bond_atom_site_label_1 
_geom_bond_atom_site_label_2 
_geom_bond_distance 
_geom_bond_site_symmetry_2 
_ccdc_geom_bond_type 
O1           C16   1.252       .  A
O1           Al9   1.871       .  S
C2           O12   1.268       .  A
C2            O3   1.272       .  A
C2          C272   1.433       .  S
O3           Al5   1.933       .  S
O4            C6   1.253       .  A
O4           Al5   1.872       .  S
Al5          O13   1.911       .  S
Al5          O15   1.921       .  S
Al5          O14   1.787       .  S
C6           O19   1.262       .  A
C6          C256   1.432       .  S
O7           C17   1.250       .  A
O7           Al9   1.904       .  S
O8           C21   1.268       .  A
O8          Al18   1.893       .  S
Al9          O22   1.939       .  S
Al9          O19   1.919       .  S
Al9          O14   1.783       .  S
O10          C17   1.252       .  A
O10         Al18   1.909       .  S
O11          C20   1.253       .  A
O11         Al18   1.907       .  S
O12         Al18   1.898       .  S
O13          C20   1.256       .  A
O14         Al18   1.790       .  S
O15          C16   1.261       .  A
C16         C804   1.436       .  S
C17         C261   1.440       .  S
C20         C252   1.438       .  S
C21          O22   1.274       .  A
C21         C265   1.434       .  S
O23          C38   1.274       .  A
O23         Al31   1.939       .  S
C24          O34   1.272       .  A
C24          O25   1.268       .  A
C24         C237   1.433       .  S
O25         Al27   1.898       .  S
O26          C28   1.252       .  A
O26         Al27   1.909       .  S
Al27         O35   1.907       .  S
Al27         O37   1.892       .  S
Al27         O36   1.790       .  S
C28          O41   1.250       .  A
C28         C244   1.440       .  S
O29          C39   1.262       .  A
O29         Al31   1.919       .  S
O30          C43   1.260       .  A
O30         Al40   1.921       .  S
Al31         O44   1.871       .  S
Al31         O41   1.904       .  S
Al31         O36   1.783       .  S
O32          C39   1.253       .  A
O32         Al40   1.872       .  S
O33          C42   1.255       .  A
O33         Al40   1.911       .  S
O34         Al40   1.933       .  S
O35          C42   1.253       .  A
O36         Al40   1.787       .  S
O37          C38   1.268       .  A
C38         C236   1.434       .  S
C39         C253   1.432       .  S
C42         C229   1.438       .  S
C43          O44   1.252       .  A
C43         C792   1.437   1_545  S
O45          C60   1.274       .  A
O45         Al53   1.939       .  S
C46          O56   1.272       .  A
C46          O47   1.269       .  A
C46         C268   1.433       .  S
O47         Al49   1.898       .  S
O48          C50   1.252       .  A
O48         Al49   1.909       .  S
Al49         O57   1.907       .  S
Al49         O59   1.892       .  S
Al49         O58   1.790       .  S
C50          O63   1.250       .  A
C50         C245   1.440       .  S
O51          C61   1.262       .  A
O51         Al53   1.919       .  S
O52          C65   1.260       .  A
O52         Al62   1.921       .  S
Al53         O66   1.871       .  S
Al53         O63   1.904       .  S
Al53         O58   1.783       .  S
O54          C61   1.253       .  A
O54         Al62   1.872       .  S
O55          C64   1.255       .  A
O55         Al62   1.911       .  S
O56         Al62   1.933       .  S
O57          C64   1.253       .  A
O58         Al62   1.787       .  S
O59          C60   1.268       .  A
C60         C269   1.434       .  S
C61         C225   1.432       .  S
C64         C221   1.438       .  S
C65          O66   1.252       .  A
C65         C241   1.437       .  S
O67          C82   1.252       .  A
O67         Al75   1.871       .  S
C68          O78   1.268       .  A
C68          O69   1.272       .  A
C68         C233   1.433       .  S
O69         Al71   1.933       .  S
O70          C72   1.253       .  A
O70         Al71   1.872       .  S
Al71         O79   1.911       .  S
Al71         O81   1.921       .  S
Al71         O80   1.787       .  S
C72          O85   1.262       .  A
C72         C228   1.432       .  S
O73          C83   1.250       .  A
O73         Al75   1.904       .  S
O74          C87   1.268       .  A
O74         Al84   1.893       .  S
Al75         O88   1.939       .  S
Al75         O85   1.919       .  S
Al75         O80   1.783       .  S
O76          C83   1.252       .  A
O76         Al84   1.909       .  S
O77          C86   1.253       .  A
O77         Al84   1.907       .  S
O78         Al84   1.898       .  S
O79          C86   1.256       .  A
O80         Al84   1.790       .  S
O81          C82   1.261       .  A
C82         C264   1.436       .  S
C83         C257   1.440       .  S
C86         C220   1.438       .  S
C87          O88   1.274       .  A
C87         C240   1.434       .  S
O89         C104   1.274       .  A
O89         Al97   1.939       .  S
C90         O100   1.272       .  A
C90          O91   1.268       .  A
C90         C212   1.433       .  S
O91         Al93   1.898       .  S
O92          C94   1.252       .  A
O92         Al93   1.909       .  S
Al93        O101   1.907       .  S
Al93        O103   1.892       .  S
Al93        O102   1.790       .  S
C94         O107   1.250       .  A
C94         C208   1.440   1_455  S
O95         C105   1.262       .  A
O95         Al97   1.919       .  S
O96         C109   1.260       .  A
O96        Al106   1.921       .  S
Al97        O110   1.871       .  S
Al97        O107   1.904       .  S
Al97        O102   1.783       .  S
O98         C105   1.253       .  A
O98        Al106   1.872       .  S
O99         C108   1.255       .  A
O99        Al106   1.911       .  S
O100       Al106   1.933       .  S
O101        C108   1.253       .  A
O102       Al106   1.787       .  S
O103        C104   1.268       .  A
C104        C216   1.434       .  S
C105        C197   1.432       .  S
C108        C249   1.438       .  S
C109        O110   1.252       .  A
C109        C204   1.436       .  S
O111        C126   1.252       .  A
O111       Al119   1.871       .  S
C112        O122   1.268       .  A
C112        O113   1.272       .  A
C112        C185   1.433       .  S
O113       Al115   1.933       .  S
O114        C116   1.253       .  A
O114       Al115   1.872       .  S
Al115       O123   1.911       .  S
Al115       O125   1.921       .  S
Al115       O124   1.787       .  S
C116        O129   1.262       .  A
C116        C200   1.432       .  S
O117        C127   1.250   1_455  A
O117       Al119   1.904   1_455  S
O118        C131   1.268       .  A
O118       Al128   1.893       .  S
Al119       O132   1.939       .  S
Al119       O129   1.919       .  S
Al119       O124   1.783       .  S
O120        C127   1.252       .  A
O120       Al128   1.909       .  S
O121        C130   1.253       .  A
O121       Al128   1.907       .  S
O122       Al128   1.898       .  S
O123        C130   1.256       .  A
O124       Al128   1.790       .  S
O125        C126   1.261       .  A
C126        C196   1.437       .  S
C127        C189   1.440   1_655  S
C130        C232   1.438       .  S
C131        O132   1.274       .  A
C131        C181   1.434       .  S
O133        C148   1.252       .  A
O133       Al141   1.871       .  S
C134        O144   1.268       .  A
C134        O135   1.272       .  A
C134        C213   1.433       .  S
O135       Al137   1.933       .  S
O136        C138   1.253       .  A
O136       Al137   1.872       .  S
Al137       O145   1.911       .  S
Al137       O147   1.921       .  S
Al137       O146   1.787       .  S
C138        O151   1.262       .  A
C138        C180   1.432       .  S
O139        C149   1.250       .  A
O139       Al141   1.904       .  S
O140        C153   1.268       .  A
O140       Al150   1.893       .  S
Al141       O154   1.939       .  S
Al141       O151   1.919       .  S
Al141       O146   1.783       .  S
O142        C149   1.252       .  A
O142       Al150   1.909       .  S
O143        C152   1.253       .  A
O143       Al150   1.907       .  S
O144       Al150   1.898       .  S
O145        C152   1.256       .  A
O146       Al150   1.790       .  S
O147        C148   1.261       .  A
C148        C736   1.437       .  S
C149        C193   1.440   1_455  S
C152        C224   1.438       .  S
C153        O154   1.274       .  A
C153        C209   1.434       .  S
O155        C170   1.274       .  A
O155       Al163   1.939       .  S
C156        O166   1.272       .  A
C156        O157   1.268       .  A
C156        C184   1.433       .  S
O157       Al159   1.898       .  S
O158        C160   1.252       .  A
O158       Al159   1.909       .  S
Al159       O167   1.907       .  S
Al159       O169   1.892       .  S
Al159       O168   1.790       .  S
C160        O173   1.250   1_655  A
C160        C201   1.440   1_655  S
O161        C171   1.262       .  A
O161       Al163   1.919       .  S
O162        C175   1.260       .  A
O162       Al172   1.921       .  S
Al163       O176   1.871       .  S
Al163       O173   1.904   1_655  S
Al163       O168   1.783       .  S
O164        C171   1.253       .  A
O164       Al172   1.872       .  S
O165        C174   1.255       .  A
O165       Al172   1.911       .  S
O166       Al172   1.933       .  S
O167        C174   1.253       .  A
O168       Al172   1.787       .  S
O169        C170   1.268       .  A
C170        C188   1.434       .  S
C171        C177   1.432       .  S
C174        C217   1.438       .  S
C175        O176   1.252       .  A
C175        C749   1.436   1_545  S
C177        C178   1.205       .  T
C178        C995   1.411   1_645  S
C179        C180   1.205       .  T
C179        C994   1.411   1_454  S
C181        C182   1.205       .  T
C182        C183   1.411       .  S
C183        C456   1.205   1_554  T
C184        C455   1.205       .  T
C185        C186   1.205       .  T
C186        C187   1.411       .  S
C187        C188   1.205       .  T
C189        C190   1.208       .  T
C190        C191   1.416       .  S
C191        C192   1.208       .  T
C192        C692   1.437   1_545  S
C193        C194   1.208       .  T
C194        C195   1.416       .  S
C195        C196   1.208       .  T
C197        C198   1.205       .  T
C198        C199   1.411   1_455  S
C199        C200   1.205       .  T
C201        C202   1.208       .  T
C202        C203   1.416       .  S
C203        C204   1.208       .  T
C205        C719   1.436       .  S
C205        C206   1.208       .  T
C206        C207   1.416       .  S
C207        C208   1.208       .  T
C209        C210   1.205       .  T
C210        C211   1.411       .  S
C211        C212   1.205       .  T
C213        C214   1.205       .  T
C214        C487   1.411   1_554  S
C215        C216   1.205       .  T
C215        C486   1.411       .  S
C217        C218   1.208       .  T
C218        C219   1.416       .  S
C219        C220   1.208       .  T
C221        C222   1.208       .  T
C222        C223   1.416       .  S
C223        C224   1.208       .  T
C225        C226   1.205       .  T
C226        C227   1.411       .  S
C227        C228   1.205       .  T
C229        C230   1.208       .  T
C230        C231   1.416       .  S
C231        C232   1.208       .  T
C233        C234   1.205       .  T
C234        C235   1.411       .  S
C235        C236   1.205       .  T
C237        C238   1.205       .  T
C238        C511   1.411   1_554  S
C239        C240   1.205       .  T
C239        C510   1.411       .  S
C241        C242   1.208       .  T
C242        C243   1.416       .  S
C243        C244   1.208       .  T
C245        C246   1.208       .  T
C246        C247   1.416       .  S
C247        C248   1.208       .  T
C248        C587   1.437       .  S
C249        C250   1.208       .  T
C250        C251   1.416       .  S
C251        C252   1.208       .  T
C253        C254   1.205       .  T
C254       C1071   1.411   1_544  S
C255        C256   1.205       .  T
C255       C1070   1.411       .  S
C257        C258   1.208       .  T
C258        C259   1.416       .  S
C259        C260   1.208       .  T
C260        C560   1.436   1_545  S
C261        C262   1.208       .  T
C262        C263   1.416       .  S
C263        C264   1.208       .  T
C265        C266   1.205       .  T
C266        C267   1.411       .  S
C267        C268   1.205       .  T
C269        C270   1.205       .  T
C270        C271   1.411       .  S
C271        C544   1.205   1_554  T
C272        C543   1.205       .  T
O273        C288   1.252       .  A
O273       Al281   1.871       .  S
C274        O284   1.268       .  A
C274        O275   1.272       .  A
C274        C544   1.433       .  S
O275       Al277   1.933       .  S
O276        C278   1.253       .  A
O276       Al277   1.872       .  S
Al277       O285   1.911       .  S
Al277       O287   1.921       .  S
Al277       O286   1.787       .  S
C278        O291   1.262       .  A
C278        C528   1.432       .  S
O279        C289   1.250       .  A
O279       Al281   1.904       .  S
O280        C293   1.268       .  A
O280       Al290   1.893       .  S
Al281       O294   1.939       .  S
Al281       O291   1.919       .  S
Al281       O286   1.783       .  S
O282        C289   1.252       .  A
O282       Al290   1.909       .  S
O283        C292   1.253       .  A
O283       Al290   1.907       .  S
O284       Al290   1.898       .  S
O285        C292   1.256       .  A
O286       Al290   1.790       .  S
O287        C288   1.261       .  A
C288       C1076   1.436       .  S
C289        C533   1.440       .  S
C292        C524   1.438       .  S
C293        O294   1.274       .  A
C293        C537   1.434       .  S
O295        C310   1.274       .  A
O295       Al303   1.939       .  S
C296        O306   1.272       .  A
C296        O297   1.268       .  A
C296        C509   1.433       .  S
O297       Al299   1.898       .  S
O298        C300   1.252       .  A
O298       Al299   1.909       .  S
Al299       O307   1.907       .  S
Al299       O309   1.892       .  S
Al299       O308   1.790       .  S
C300        O313   1.250       .  A
C300        C516   1.440       .  S
O301        C311   1.262       .  A
O301       Al303   1.919       .  S
O302        C315   1.260       .  A
O302       Al312   1.921       .  S
Al303       O316   1.871       .  S
Al303       O313   1.904       .  S
Al303       O308   1.783       .  S
O304        C311   1.253       .  A
O304       Al312   1.872       .  S
O305        C314   1.255       .  A
O305       Al312   1.911       .  S
O306       Al312   1.933       .  S
O307        C314   1.253       .  A
O308       Al312   1.787       .  S
O309        C310   1.268       .  A
C310        C508   1.434       .  S
C311        C525   1.432       .  S
C314        C501   1.438       .  S
C315        O316   1.252       .  A
C315       C1064   1.437   1_545  S
O317        C332   1.274       .  A
O317       Al325   1.939       .  S
C318        O328   1.272       .  A
C318        O319   1.268       .  A
C318        C540   1.433       .  S
O319       Al321   1.898       .  S
O320        C322   1.252       .  A
O320       Al321   1.909       .  S
Al321       O329   1.907       .  S
Al321       O331   1.892       .  S
Al321       O330   1.790       .  S
C322        O335   1.250       .  A
C322        C517   1.440       .  S
O323        C333   1.262       .  A
O323       Al325   1.919       .  S
O324        C337   1.260       .  A
O324       Al334   1.921       .  S
Al325       O338   1.871       .  S
Al325       O335   1.904       .  S
Al325       O330   1.783       .  S
O326        C333   1.253       .  A
O326       Al334   1.872       .  S
O327        C336   1.255       .  A
O327       Al334   1.911       .  S
O328       Al334   1.933       .  S
O329        C336   1.253       .  A
O330       Al334   1.787       .  S
O331        C332   1.268       .  A
C332        C541   1.434       .  S
C333        C497   1.432       .  S
C336        C493   1.438       .  S
C337        O338   1.252       .  A
C337        C513   1.437       .  S
O339        C354   1.252       .  A
O339       Al347   1.871       .  S
C340        O350   1.268       .  A
C340        O341   1.272       .  A
C340        C505   1.433       .  S
O341       Al343   1.933       .  S
O342        C344   1.253       .  A
O342       Al343   1.872       .  S
Al343       O351   1.911       .  S
Al343       O353   1.921       .  S
Al343       O352   1.787       .  S
C344        O357   1.262       .  A
C344        C500   1.432       .  S
O345        C355   1.250       .  A
O345       Al347   1.904       .  S
O346        C359   1.268       .  A
O346       Al356   1.893       .  S
Al347       O360   1.939       .  S
Al347       O357   1.919       .  S
Al347       O352   1.783       .  S
O348        C355   1.252       .  A
O348       Al356   1.909       .  S
O349        C358   1.253       .  A
O349       Al356   1.907       .  S
O350       Al356   1.898       .  S
O351        C358   1.256       .  A
O352       Al356   1.790       .  S
O353        C354   1.261       .  A
C354        C536   1.436       .  S
C355        C529   1.440       .  S
C358        C492   1.438       .  S
C359        O360   1.274       .  A
C359        C512   1.434       .  S
O361        C376   1.274       .  A
O361       Al369   1.939       .  S
C362        O372   1.272       .  A
C362        O363   1.268       .  A
C362        C484   1.433       .  S
O363       Al365   1.898       .  S
O364        C366   1.252       .  A
O364       Al365   1.909       .  S
Al365       O373   1.907       .  S
Al365       O375   1.892       .  S
Al365       O374   1.790       .  S
C366        O379   1.250       .  A
C366        C480   1.440   1_455  S
O367        C377   1.262       .  A
O367       Al369   1.919       .  S
O368        C381   1.260       .  A
O368       Al378   1.921       .  S
Al369       O382   1.871       .  S
Al369       O379   1.904       .  S
Al369       O374   1.783       .  S
O370        C377   1.253       .  A
O370       Al378   1.872       .  S
O371        C380   1.255       .  A
O371       Al378   1.911       .  S
O372       Al378   1.933       .  S
O373        C380   1.253       .  A
O374       Al378   1.787       .  S
O375        C376   1.268       .  A
C376        C488   1.434       .  S
C377        C469   1.432       .  S
C380        C521   1.438       .  S
C381        O382   1.252       .  A
C381        C476   1.436       .  S
O383        C398   1.252       .  A
O383       Al391   1.871       .  S
C384        O394   1.268       .  A
C384        O385   1.272       .  A
C384        C457   1.433       .  S
O385       Al387   1.933       .  S
O386        C388   1.253       .  A
O386       Al387   1.872       .  S
Al387       O395   1.911       .  S
Al387       O397   1.921       .  S
Al387       O396   1.787       .  S
C388        O401   1.262       .  A
C388        C472   1.432       .  S
O389        C399   1.250   1_455  A
O389       Al391   1.904   1_455  S
O390        C403   1.268       .  A
O390       Al400   1.893       .  S
Al391       O404   1.939       .  S
Al391       O401   1.919       .  S
Al391       O396   1.783       .  S
O392        C399   1.252       .  A
O392       Al400   1.909       .  S
O393        C402   1.253       .  A
O393       Al400   1.907       .  S
O394       Al400   1.898       .  S
O395        C402   1.256       .  A
O396       Al400   1.790       .  S
O397        C398   1.261       .  A
C398        C468   1.437       .  S
C399        C461   1.440   1_655  S
C402        C504   1.438       .  S
C403        O404   1.274       .  A
C403        C453   1.434       .  S
O405        C420   1.252       .  A
O405       Al413   1.871       .  S
C406        O416   1.268       .  A
C406        O407   1.272       .  A
C406        C485   1.433       .  S
O407       Al409   1.933       .  S
O408        C410   1.253       .  A
O408       Al409   1.872       .  S
Al409       O417   1.911       .  S
Al409       O419   1.921       .  S
Al409       O418   1.787       .  S
C410        O423   1.262       .  A
C410        C452   1.432       .  S
O411        C421   1.250       .  A
O411       Al413   1.904       .  S
O412        C425   1.268       .  A
O412       Al422   1.893       .  S
Al413       O426   1.939       .  S
Al413       O423   1.919       .  S
Al413       O418   1.783       .  S
O414        C421   1.252       .  A
O414       Al422   1.909       .  S
O415        C424   1.253       .  A
O415       Al422   1.907       .  S
O416       Al422   1.898       .  S
O417        C424   1.256       .  A
O418       Al422   1.790       .  S
O419        C420   1.261       .  A
C420       C1008   1.437       .  S
C421        C465   1.440   1_455  S
C424        C496   1.438       .  S
C425        O426   1.274       .  A
C425        C481   1.434       .  S
O427        C442   1.274       .  A
O427       Al435   1.939       .  S
C428        O438   1.272       .  A
C428        O429   1.268       .  A
C428        C456   1.433       .  S
O429       Al431   1.898       .  S
O430        C432   1.252       .  A
O430       Al431   1.909       .  S
Al431       O439   1.907       .  S
Al431       O441   1.892       .  S
Al431       O440   1.790       .  S
C432        O445   1.250   1_655  A
C432        C473   1.440   1_655  S
O433        C443   1.262       .  A
O433       Al435   1.919       .  S
O434        C447   1.260       .  A
O434       Al444   1.921       .  S
Al435       O448   1.871       .  S
Al435       O445   1.904   1_655  S
Al435       O440   1.783       .  S
O436        C443   1.253       .  A
O436       Al444   1.872       .  S
O437        C446   1.255       .  A
O437       Al444   1.911       .  S
O438       Al444   1.933       .  S
O439        C446   1.253       .  A
O440       Al444   1.787       .  S
O441        C442   1.268       .  A
C442        C460   1.434       .  S
C443        C449   1.432       .  S
C446        C489   1.438       .  S
C447        O448   1.252       .  A
C447       C1021   1.436   1_545  S
C449        C450   1.205       .  T
C450        C723   1.411   1_646  S
C451        C452   1.205       .  T
C451        C722   1.411   1_455  S
C453        C454   1.205       .  T
C454        C455   1.411       .  S
C457        C458   1.205       .  T
C458        C459   1.411       .  S
C459        C460   1.205       .  T
C461        C462   1.208       .  T
C462        C463   1.416       .  S
C463        C464   1.208       .  T
C464        C964   1.437   1_545  S
C465        C466   1.208       .  T
C466        C467   1.416       .  S
C467        C468   1.208       .  T
C469        C470   1.205       .  T
C470        C471   1.411   1_455  S
C471        C472   1.205       .  T
C473        C474   1.208       .  T
C474        C475   1.416       .  S
C475        C476   1.208       .  T
C477        C991   1.436       .  S
C477        C478   1.208       .  T
C478        C479   1.416       .  S
C479        C480   1.208       .  T
C481        C482   1.205       .  T
C482        C483   1.411       .  S
C483        C484   1.205       .  T
C485        C486   1.205       .  T
C487        C488   1.205       .  T
C489        C490   1.208       .  T
C490        C491   1.416       .  S
C491        C492   1.208       .  T
C493        C494   1.208       .  T
C494        C495   1.416       .  S
C495        C496   1.208       .  T
C497        C498   1.205       .  T
C498        C499   1.411       .  S
C499        C500   1.205       .  T
C501        C502   1.208       .  T
C502        C503   1.416       .  S
C503        C504   1.208       .  T
C505        C506   1.205       .  T
C506        C507   1.411       .  S
C507        C508   1.205       .  T
C509        C510   1.205       .  T
C511        C512   1.205       .  T
C513        C514   1.208       .  T
C514        C515   1.416       .  S
C515        C516   1.208       .  T
C517        C518   1.208       .  T
C518        C519   1.416       .  S
C519        C520   1.208       .  T
C520        C859   1.437       .  S
C521        C522   1.208       .  T
C522        C523   1.416       .  S
C523        C524   1.208       .  T
C525        C526   1.205       .  T
C526        C799   1.411   1_545  S
C527        C528   1.205       .  T
C527        C798   1.411   1_556  S
C529        C530   1.208       .  T
C530        C531   1.416       .  S
C531        C532   1.208       .  T
C532        C832   1.436   1_545  S
C533        C534   1.208       .  T
C534        C535   1.416       .  S
C535        C536   1.208       .  T
C537        C538   1.205       .  T
C538        C539   1.411       .  S
C539        C540   1.205       .  T
C541        C542   1.205       .  T
C542        C543   1.411       .  S
O545        C560   1.252       .  A
O545       Al553   1.871       .  S
C546        O556   1.268       .  A
C546        O547   1.272       .  A
C546        C816   1.433       .  S
O547       Al549   1.933       .  S
O548        C550   1.253       .  A
O548       Al549   1.872       .  S
Al549       O557   1.911       .  S
Al549       O559   1.921       .  S
Al549       O558   1.787       .  S
C550        O563   1.262       .  A
C550        C800   1.432       .  S
O551        C561   1.250       .  A
O551       Al553   1.904       .  S
O552        C565   1.268       .  A
O552       Al562   1.893       .  S
Al553       O566   1.939       .  S
Al553       O563   1.919       .  S
Al553       O558   1.783       .  S
O554        C561   1.252       .  A
O554       Al562   1.909       .  S
O555        C564   1.253       .  A
O555       Al562   1.907       .  S
O556       Al562   1.898       .  S
O557        C564   1.256       .  A
O558       Al562   1.790       .  S
O559        C560   1.261       .  A
C561        C805   1.440       .  S
C564        C796   1.438       .  S
C565        O566   1.274       .  A
C565        C809   1.434       .  S
O567        C582   1.274       .  A
O567       Al575   1.939       .  S
C568        O578   1.272       .  A
C568        O569   1.268       .  A
C568        C781   1.433       .  S
O569       Al571   1.898       .  S
O570        C572   1.252       .  A
O570       Al571   1.909       .  S
Al571       O579   1.907       .  S
Al571       O581   1.892       .  S
Al571       O580   1.790       .  S
C572        O585   1.250       .  A
C572        C788   1.440       .  S
O573        C583   1.262       .  A
O573       Al575   1.919       .  S
O574        C587   1.260       .  A
O574       Al584   1.921       .  S
Al575       O588   1.871       .  S
Al575       O585   1.904       .  S
Al575       O580   1.783       .  S
O576        C583   1.253       .  A
O576       Al584   1.872       .  S
O577        C586   1.255       .  A
O577       Al584   1.911       .  S
O578       Al584   1.933       .  S
O579        C586   1.253       .  A
O580       Al584   1.787       .  S
O581        C582   1.268       .  A
C582        C780   1.434       .  S
C583        C797   1.432       .  S
C586        C773   1.438       .  S
C587        O588   1.252       .  A
O589        C604   1.274       .  A
O589       Al597   1.939       .  S
C590        O600   1.272       .  A
C590        O591   1.268       .  A
C590        C812   1.433       .  S
O591       Al593   1.898       .  S
O592        C594   1.252       .  A
O592       Al593   1.909       .  S
Al593       O601   1.907       .  S
Al593       O603   1.892       .  S
Al593       O602   1.790       .  S
C594        O607   1.250       .  A
C594        C789   1.440       .  S
O595        C605   1.262       .  A
O595       Al597   1.919       .  S
O596        C609   1.260       .  A
O596       Al606   1.921       .  S
Al597       O610   1.871       .  S
Al597       O607   1.904       .  S
Al597       O602   1.783       .  S
O598        C605   1.253       .  A
O598       Al606   1.872       .  S
O599        C608   1.255       .  A
O599       Al606   1.911       .  S
O600       Al606   1.933       .  S
O601        C608   1.253       .  A
O602       Al606   1.787       .  S
O603        C604   1.268       .  A
C604        C813   1.434       .  S
C605        C769   1.432       .  S
C608        C765   1.438       .  S
C609        O610   1.252       .  A
C609        C785   1.437       .  S
O611        C626   1.252       .  A
O611       Al619   1.871       .  S
C612        O622   1.268       .  A
C612        O613   1.272       .  A
C612        C777   1.433       .  S
O613       Al615   1.933       .  S
O614        C616   1.253       .  A
O614       Al615   1.872       .  S
Al615       O623   1.911       .  S
Al615       O625   1.921       .  S
Al615       O624   1.787       .  S
C616        O629   1.262       .  A
C616        C772   1.432       .  S
O617        C627   1.250       .  A
O617       Al619   1.904       .  S
O618        C631   1.268       .  A
O618       Al628   1.893       .  S
Al619       O632   1.939       .  S
Al619       O629   1.919       .  S
Al619       O624   1.783       .  S
O620        C627   1.252       .  A
O620       Al628   1.909       .  S
O621        C630   1.253       .  A
O621       Al628   1.907       .  S
O622       Al628   1.898       .  S
O623        C630   1.256       .  A
O624       Al628   1.790       .  S
O625        C626   1.261       .  A
C626        C808   1.436       .  S
C627        C801   1.440       .  S
C630        C764   1.438       .  S
C631        O632   1.274       .  A
C631        C784   1.434       .  S
O633        C648   1.274       .  A
O633       Al641   1.939       .  S
C634        O644   1.272       .  A
C634        O635   1.268       .  A
C634        C756   1.433       .  S
O635       Al637   1.898       .  S
O636        C638   1.252       .  A
O636       Al637   1.909       .  S
Al637       O645   1.907       .  S
Al637       O647   1.892       .  S
Al637       O646   1.790       .  S
C638        O651   1.250       .  A
C638        C752   1.440   1_455  S
O639        C649   1.262       .  A
O639       Al641   1.919       .  S
O640        C653   1.260       .  A
O640       Al650   1.921       .  S
Al641       O654   1.871       .  S
Al641       O651   1.904       .  S
Al641       O646   1.783       .  S
O642        C649   1.253       .  A
O642       Al650   1.872       .  S
O643        C652   1.255       .  A
O643       Al650   1.911       .  S
O644       Al650   1.933       .  S
O645        C652   1.253       .  A
O646       Al650   1.787       .  S
O647        C648   1.268       .  A
C648        C760   1.434       .  S
C649        C741   1.432       .  S
C652        C793   1.438       .  S
C653        O654   1.252       .  A
C653        C748   1.436       .  S
O655        C670   1.252       .  A
O655       Al663   1.871       .  S
C656        O666   1.268       .  A
C656        O657   1.272       .  A
C656        C729   1.433       .  S
O657       Al659   1.933       .  S
O658        C660   1.253       .  A
O658       Al659   1.872       .  S
Al659       O667   1.911       .  S
Al659       O669   1.921       .  S
Al659       O668   1.787       .  S
C660        O673   1.262       .  A
C660        C744   1.432       .  S
O661        C671   1.250   1_455  A
O661       Al663   1.904   1_455  S
O662        C675   1.268       .  A
O662       Al672   1.893       .  S
Al663       O676   1.939       .  S
Al663       O673   1.919       .  S
Al663       O668   1.783       .  S
O664        C671   1.252       .  A
O664       Al672   1.909       .  S
O665        C674   1.253       .  A
O665       Al672   1.907       .  S
O666       Al672   1.898       .  S
O667        C674   1.256       .  A
O668       Al672   1.790       .  S
O669        C670   1.261       .  A
C670        C740   1.437       .  S
C671        C733   1.440   1_655  S
C674        C776   1.438       .  S
C675        O676   1.274       .  A
C675        C725   1.434       .  S
O677        C692   1.252       .  A
O677       Al685   1.871       .  S
C678        O688   1.268       .  A
C678        O679   1.272       .  A
C678        C757   1.433       .  S
O679       Al681   1.933       .  S
O680        C682   1.253       .  A
O680       Al681   1.872       .  S
Al681       O689   1.911       .  S
Al681       O691   1.921       .  S
Al681       O690   1.787       .  S
C682        O695   1.262       .  A
C682        C724   1.432       .  S
O683        C693   1.250       .  A
O683       Al685   1.904       .  S
O684        C697   1.268       .  A
O684       Al694   1.893       .  S
Al685       O698   1.939       .  S
Al685       O695   1.919       .  S
Al685       O690   1.783       .  S
O686        C693   1.252       .  A
O686       Al694   1.909       .  S
O687        C696   1.253       .  A
O687       Al694   1.907       .  S
O688       Al694   1.898       .  S
O689        C696   1.256       .  A
O690       Al694   1.790       .  S
O691        C692   1.261       .  A
C693        C737   1.440   1_455  S
C696        C768   1.438       .  S
C697        O698   1.274       .  A
C697        C753   1.434       .  S
O699        C714   1.274       .  A
O699       Al707   1.939       .  S
C700        O710   1.272       .  A
C700        O701   1.268       .  A
C700        C728   1.433       .  S
O701       Al703   1.898       .  S
O702        C704   1.252       .  A
O702       Al703   1.909       .  S
Al703       O711   1.907       .  S
Al703       O713   1.893       .  S
Al703       O712   1.790       .  S
C704        O717   1.250   1_655  A
C704        C745   1.440   1_655  S
O705        C715   1.262       .  A
O705       Al707   1.919       .  S
O706        C719   1.260       .  A
O706       Al716   1.921       .  S
Al707       O720   1.871       .  S
Al707       O717   1.904   1_655  S
Al707       O712   1.783       .  S
O708        C715   1.253       .  A
O708       Al716   1.872       .  S
O709        C718   1.255       .  A
O709       Al716   1.911       .  S
O710       Al716   1.933       .  S
O711        C718   1.253       .  A
O712       Al716   1.787       .  S
O713        C714   1.268       .  A
C714        C732   1.434       .  S
C715        C721   1.432       .  S
C718        C761   1.438       .  S
C719        O720   1.252       .  A
C721        C722   1.205       .  T
C723        C724   1.205       .  T
C725        C726   1.205       .  T
C726        C727   1.411       .  S
C727       C1000   1.205   1_554  T
C728        C999   1.205       .  T
C729        C730   1.205       .  T
C730        C731   1.411       .  S
C731        C732   1.205       .  T
C733        C734   1.208       .  T
C734        C735   1.416       .  S
C735        C736   1.208       .  T
C737        C738   1.208       .  T
C738        C739   1.416       .  S
C739        C740   1.208       .  T
C741        C742   1.205       .  T
C742        C743   1.411   1_455  S
C743        C744   1.205       .  T
C745        C746   1.208       .  T
C746        C747   1.416       .  S
C747        C748   1.208       .  T
C749        C750   1.208       .  T
C750        C751   1.416       .  S
C751        C752   1.208       .  T
C753        C754   1.205       .  T
C754        C755   1.411       .  S
C755        C756   1.205       .  T
C757        C758   1.205       .  T
C758       C1031   1.411   1_554  S
C759        C760   1.205       .  T
C759       C1030   1.411       .  S
C761        C762   1.208       .  T
C762        C763   1.416       .  S
C763        C764   1.208       .  T
C765        C766   1.208       .  T
C766        C767   1.416       .  S
C767        C768   1.208       .  T
C769        C770   1.205       .  T
C770        C771   1.411       .  S
C771        C772   1.205       .  T
C773        C774   1.208       .  T
C774        C775   1.416       .  S
C775        C776   1.208       .  T
C777        C778   1.205       .  T
C778        C779   1.411       .  S
C779        C780   1.205       .  T
C781        C782   1.205       .  T
C782       C1055   1.411   1_554  S
C783        C784   1.205       .  T
C783       C1054   1.411       .  S
C785        C786   1.208       .  T
C786        C787   1.416       .  S
C787        C788   1.208       .  T
C789        C790   1.208       .  T
C790        C791   1.416       .  S
C791        C792   1.208       .  T
C793        C794   1.208       .  T
C794        C795   1.416       .  S
C795        C796   1.208       .  T
C797        C798   1.205       .  T
C799        C800   1.205       .  T
C801        C802   1.208       .  T
C802        C803   1.416       .  S
C803        C804   1.208       .  T
C805        C806   1.208       .  T
C806        C807   1.416       .  S
C807        C808   1.208       .  T
C809        C810   1.205       .  T
C810        C811   1.411       .  S
C811        C812   1.205       .  T
C813        C814   1.205       .  T
C814        C815   1.411       .  S
C815       C1088   1.205   1_554  T
C816       C1087   1.205       .  T
O817        C832   1.252       .  A
O817       Al825   1.871       .  S
C818        O828   1.268       .  A
C818        O819   1.272       .  A
C818       C1088   1.433       .  S
O819       Al821   1.933       .  S
O820        C822   1.253       .  A
O820       Al821   1.872       .  S
Al821       O829   1.911       .  S
Al821       O831   1.921       .  S
Al821       O830   1.787       .  S
C822        O835   1.262       .  A
C822       C1072   1.432       .  S
O823        C833   1.250       .  A
O823       Al825   1.904       .  S
O824        C837   1.268       .  A
O824       Al834   1.893       .  S
Al825       O838   1.939       .  S
Al825       O835   1.919       .  S
Al825       O830   1.783       .  S
O826        C833   1.252       .  A
O826       Al834   1.909       .  S
O827        C836   1.253       .  A
O827       Al834   1.907       .  S
O828       Al834   1.898       .  S
O829        C836   1.256       .  A
O830       Al834   1.790       .  S
O831        C832   1.261       .  A
C833       C1077   1.440       .  S
C836       C1068   1.438       .  S
C837        O838   1.274       .  A
C837       C1081   1.434       .  S
O839        C854   1.274       .  A
O839       Al847   1.939       .  S
C840        O850   1.272       .  A
C840        O841   1.269       .  A
C840       C1053   1.433       .  S
O841       Al843   1.898       .  S
O842        C844   1.252       .  A
O842       Al843   1.909       .  S
Al843       O851   1.907       .  S
Al843       O853   1.892       .  S
Al843       O852   1.790       .  S
C844        O857   1.250       .  A
C844       C1060   1.440       .  S
O845        C855   1.262       .  A
O845       Al847   1.919       .  S
O846        C859   1.260       .  A
O846       Al856   1.921       .  S
Al847       O860   1.871       .  S
Al847       O857   1.904       .  S
Al847       O852   1.783       .  S
O848        C855   1.253       .  A
O848       Al856   1.872       .  S
O849        C858   1.255       .  A
O849       Al856   1.911       .  S
O850       Al856   1.933       .  S
O851        C858   1.253       .  A
O852       Al856   1.787       .  S
O853        C854   1.268       .  A
C854       C1052   1.434       .  S
C855       C1069   1.432       .  S
C858       C1045   1.438       .  S
C859        O860   1.252       .  A
O861        C876   1.274       .  A
O861       Al869   1.939       .  S
C862        O872   1.272       .  A
C862        O863   1.269       .  A
C862       C1084   1.433       .  S
O863       Al865   1.898       .  S
O864        C866   1.252       .  A
O864       Al865   1.909       .  S
Al865       O873   1.907       .  S
Al865       O875   1.892       .  S
Al865       O874   1.790       .  S
C866        O879   1.250       .  A
C866       C1061   1.440       .  S
O867        C877   1.262       .  A
O867       Al869   1.919       .  S
O868        C881   1.260       .  A
O868       Al878   1.921       .  S
Al869       O882   1.871       .  S
Al869       O879   1.904       .  S
Al869       O874   1.783       .  S
O870        C877   1.253       .  A
O870       Al878   1.872       .  S
O871        C880   1.255       .  A
O871       Al878   1.911       .  S
O872       Al878   1.933       .  S
O873        C880   1.253       .  A
O874       Al878   1.787       .  S
O875        C876   1.268       .  A
C876       C1085   1.434       .  S
C877       C1041   1.432       .  S
C880       C1037   1.438       .  S
C881        O882   1.252       .  A
C881       C1057   1.437       .  S
O883        C898   1.252       .  A
O883       Al891   1.871       .  S
C884        O894   1.268       .  A
C884        O885   1.272       .  A
C884       C1049   1.433       .  S
O885       Al887   1.933       .  S
O886        C888   1.253       .  A
O886       Al887   1.872       .  S
Al887       O895   1.911       .  S
Al887       O897   1.921       .  S
Al887       O896   1.787       .  S
C888        O901   1.262       .  A
C888       C1044   1.432       .  S
O889        C899   1.250       .  A
O889       Al891   1.904       .  S
O890        C903   1.268       .  A
O890       Al900   1.893       .  S
Al891       O904   1.939       .  S
Al891       O901   1.919       .  S
Al891       O896   1.783       .  S
O892        C899   1.252       .  A
O892       Al900   1.909       .  S
O893        C902   1.253       .  A
O893       Al900   1.907       .  S
O894       Al900   1.898       .  S
O895        C902   1.256       .  A
O896       Al900   1.790       .  S
O897        C898   1.261       .  A
C898       C1080   1.436       .  S
C899       C1073   1.440       .  S
C902       C1036   1.438       .  S
C903        O904   1.274       .  A
C903       C1056   1.434       .  S
O905        C920   1.274       .  A
O905       Al913   1.939       .  S
C906        O916   1.272       .  A
C906        O907   1.268       .  A
C906       C1028   1.433       .  S
O907       Al909   1.898       .  S
O908        C910   1.252       .  A
O908       Al909   1.909       .  S
Al909       O917   1.907       .  S
Al909       O919   1.892       .  S
Al909       O918   1.790       .  S
C910        O923   1.250       .  A
C910       C1024   1.440   1_455  S
O911        C921   1.262       .  A
O911       Al913   1.919       .  S
O912        C925   1.260       .  A
O912       Al922   1.921       .  S
Al913       O926   1.871       .  S
Al913       O923   1.904       .  S
Al913       O918   1.783       .  S
O914        C921   1.253       .  A
O914       Al922   1.872       .  S
O915        C924   1.255       .  A
O915       Al922   1.911       .  S
O916       Al922   1.933       .  S
O917        C924   1.253       .  A
O918       Al922   1.787       .  S
O919        C920   1.268       .  A
C920       C1032   1.434       .  S
C921       C1013   1.432       .  S
C924       C1065   1.438       .  S
C925        O926   1.252       .  A
C925       C1020   1.436       .  S
O927        C942   1.252       .  A
O927       Al935   1.871       .  S
C928        O938   1.268       .  A
C928        O929   1.272       .  A
C928       C1001   1.433       .  S
O929       Al931   1.933       .  S
O930        C932   1.253       .  A
O930       Al931   1.872       .  S
Al931       O939   1.911       .  S
Al931       O941   1.921       .  S
Al931       O940   1.787       .  S
C932        O945   1.262       .  A
C932       C1016   1.432       .  S
O933        C943   1.250   1_455  A
O933       Al935   1.904   1_455  S
O934        C947   1.268       .  A
O934       Al944   1.893       .  S
Al935       O948   1.939       .  S
Al935       O945   1.919       .  S
Al935       O940   1.783       .  S
O936        C943   1.252       .  A
O936       Al944   1.909       .  S
O937        C946   1.253       .  A
O937       Al944   1.907       .  S
O938       Al944   1.898       .  S
O939        C946   1.256       .  A
O940       Al944   1.790       .  S
O941        C942   1.261       .  A
C942       C1012   1.437       .  S
C943       C1005   1.440   1_655  S
C946       C1048   1.438       .  S
C947        O948   1.274       .  A
C947        C997   1.434       .  S
O949        C964   1.252       .  A
O949       Al957   1.871       .  S
C950        O960   1.268       .  A
C950        O951   1.272       .  A
C950       C1029   1.433       .  S
O951       Al953   1.933       .  S
O952        C954   1.253       .  A
O952       Al953   1.872       .  S
Al953       O961   1.911       .  S
Al953       O963   1.921       .  S
Al953       O962   1.787       .  S
C954        O967   1.262       .  A
C954        C996   1.432       .  S
O955        C965   1.250       .  A
O955       Al957   1.904       .  S
O956        C969   1.268       .  A
O956       Al966   1.893       .  S
Al957       O970   1.939       .  S
Al957       O967   1.919       .  S
Al957       O962   1.783       .  S
O958        C965   1.252       .  A
O958       Al966   1.909       .  S
O959        C968   1.253       .  A
O959       Al966   1.907       .  S
O960       Al966   1.898       .  S
O961        C968   1.256       .  A
O962       Al966   1.790       .  S
O963        C964   1.261       .  A
C965       C1009   1.440   1_455  S
C968       C1040   1.438       .  S
C969        O970   1.274       .  A
C969       C1025   1.434       .  S
O971        C986   1.274       .  A
O971       Al979   1.939       .  S
C972        O982   1.272       .  A
C972        O973   1.268       .  A
C972       C1000   1.433       .  S
O973       Al975   1.898       .  S
O974        C976   1.252       .  A
O974       Al975   1.909       .  S
Al975       O983   1.907       .  S
Al975       O985   1.892       .  S
Al975       O984   1.790       .  S
C976        O989   1.250   1_655  A
C976       C1017   1.440   1_655  S
O977        C987   1.262       .  A
O977       Al979   1.919       .  S
O978        C991   1.260       .  A
O978       Al988   1.921       .  S
Al979       O992   1.871       .  S
Al979       O989   1.904   1_655  S
Al979       O984   1.783       .  S
O980        C987   1.253       .  A
O980       Al988   1.872       .  S
O981        C990   1.255       .  A
O981       Al988   1.911       .  S
O982       Al988   1.933       .  S
O983        C990   1.253       .  A
O984       Al988   1.787       .  S
O985        C986   1.268       .  A
C986       C1004   1.434       .  S
C987        C993   1.432       .  S
C990       C1033   1.438       .  S
C991        O992   1.252       .  A
C993        C994   1.205       .  T
C995        C996   1.205       .  T
C997        C998   1.205       .  T
C998        C999   1.411       .  S
C1001      C1002   1.205       .  T
C1002      C1003   1.411       .  S
C1003      C1004   1.205       .  T
C1005      C1006   1.208       .  T
C1006      C1007   1.416       .  S
C1007      C1008   1.208       .  T
C1009      C1010   1.208       .  T
C1010      C1011   1.416       .  S
C1011      C1012   1.208       .  T
C1013      C1014   1.205       .  T
C1014      C1015   1.411   1_455  S
C1015      C1016   1.205       .  T
C1017      C1018   1.208       .  T
C1018      C1019   1.416       .  S
C1019      C1020   1.208       .  T
C1021      C1022   1.208       .  T
C1022      C1023   1.416       .  S
C1023      C1024   1.208       .  T
C1025      C1026   1.205       .  T
C1026      C1027   1.411       .  S
C1027      C1028   1.205       .  T
C1029      C1030   1.205       .  T
C1031      C1032   1.205       .  T
C1033      C1034   1.208       .  T
C1034      C1035   1.416       .  S
C1035      C1036   1.208       .  T
C1037      C1038   1.208       .  T
C1038      C1039   1.416       .  S
C1039      C1040   1.208       .  T
C1041      C1042   1.205       .  T
C1042      C1043   1.411       .  S
C1043      C1044   1.205       .  T
C1045      C1046   1.208       .  T
C1046      C1047   1.416       .  S
C1047      C1048   1.208       .  T
C1049      C1050   1.205       .  T
C1050      C1051   1.411       .  S
C1051      C1052   1.205       .  T
C1053      C1054   1.205       .  T
C1055      C1056   1.205       .  T
C1057      C1058   1.208       .  T
C1058      C1059   1.416       .  S
C1059      C1060   1.208       .  T
C1061      C1062   1.208       .  T
C1062      C1063   1.416       .  S
C1063      C1064   1.208       .  T
C1065      C1066   1.208       .  T
C1066      C1067   1.416       .  S
C1067      C1068   1.208       .  T
C1069      C1070   1.205       .  T
C1071      C1072   1.205       .  T
C1073      C1074   1.208       .  T
C1074      C1075   1.416       .  S
C1075      C1076   1.208       .  T
C1077      C1078   1.208       .  T
C1078      C1079   1.416       .  S
C1079      C1080   1.208       .  T
C1081      C1082   1.205       .  T
C1082      C1083   1.411       .  S
C1083      C1084   1.205       .  T
C1085      C1086   1.205       .  T
C1086      C1087   1.411       .  S
