geometry optimzed in LAMMPS
_audit_creation_date              2020-12-01 
_audit_creation_method            'lammps2cif' 
_symmetry_space_group_name_H-M    'P1' 
_symmetry_Int_Tables_number       1 
_symmetry_cell_setting            triclinic 
loop_ 
_symmetry_equiv_pos_as_xyz 
  x,y,z 
_cell_length_a                    28.83368323 
_cell_length_b                    47.109310528791426 
_cell_length_c                    31.103246413116068 
_cell_angle_alpha                 90.0572843095595 
_cell_angle_beta                  107.50273050276836 
_cell_angle_gamma                 89.47299163009372 
loop_ 
_atom_site_label 
_atom_site_type_symbol 
_atom_site_fract_x 
_atom_site_fract_y 
_atom_site_fract_z 
_atom_site_charge 
Fe1        Fe  0.75536785  0.58155764  0.74847042     1.65800
Fe2        Fe  0.66995914  0.53245888  0.75092538     1.73200
Fe3        Fe  0.63502983  0.59629383  0.69943498     1.54400
O4          O  0.66435398  0.63311165  0.73309035    -0.81300
O5          O  0.63185398  0.52176292  0.68521840    -0.79600
O6          O  0.74360565  0.62426375  0.75561365    -0.83800
O7          O  0.74810186  0.58780536  0.68105646    -0.78600
O8          O  0.59298928  0.59178450  0.74261343    -0.80400
O9          O  0.72909925  0.50995215  0.74332666    -0.83100
C10         C  0.71294019  0.59747921  0.64867707     0.97600
C11         C  0.70801462  0.64132000  0.74817931     1.05100
O12         O  0.68692156  0.57015517  0.73308763    -1.12100
O13         O  0.70657872  0.54242237  0.81733363    -0.74600
O14         O  0.76267140  0.57541402  0.81624436    -0.78000
O15         O  0.67126388  0.60318639  0.65271081    -0.78700
C16         C  0.73981518  0.55999021  0.83679545     0.96500
O17         O  0.78406605  0.54208462  0.74330375    -0.76700
O18         O  0.60625147  0.54644614  0.76115576    -0.81900
C19         C  0.60222034  0.53690849  0.65517450     0.99100
C20         C  0.58151368  0.56907826  0.75866646     1.05100
O21         O  0.59824469  0.56364866  0.65902761    -0.77500
C22         C  0.77086500  0.51657570  0.74170648     1.03400
Fe23       Fe  0.74696912  0.59007322  0.24813897     1.65800
Fe24       Fe  0.83307831  0.53940322  0.26110252     1.73200
Fe25       Fe  0.86165166  0.60369601  0.31230079     1.54400
O26         O  0.83972982  0.63844515  0.27046245    -0.81300
O27         O  0.86948440  0.53067027  0.32840666    -0.79600
O28         O  0.76040026  0.63308124  0.25194388    -0.83800
O29         O  0.74163124  0.59182007  0.31207606    -0.78600
O30         O  0.91591931  0.59493194  0.28253653    -0.80400
O31         O  0.77366915  0.52002009  0.27192534    -0.83100
C32         C  0.77079837  0.60356621  0.34638087     0.97600
C33         C  0.79715980  0.64881881  0.25955635     1.05100
O34         O  0.81463775  0.57770594  0.27369232    -1.12100
O35         O  0.79810379  0.54637886  0.19226107    -0.74600
O36         O  0.75509532  0.58733080  0.18492175    -0.78000
O37         O  0.81222149  0.61342928  0.34729143    -0.78700
C38         C  0.77429907  0.56707586  0.16860080     0.96500
O39         O  0.71533152  0.55056717  0.24009886    -0.76700
O40         O  0.89679699  0.55230214  0.25103338    -0.81900
C41         C  0.89020973  0.54623662  0.36209834     0.99100
C42         C  0.92554191  0.57305453  0.26253605     1.05100
O43         O  0.88996317  0.57305755  0.35968127    -0.77500
C44         C  0.72918966  0.52647237  0.25695748     1.03400
Fe45       Fe  0.25266656  0.41060083  0.24170883     1.65800
Fe46       Fe  0.33564155  0.46281229  0.25744003     1.73200
Fe47       Fe  0.36729156  0.39871855  0.30962970     1.54400
O48         O  0.31835987  0.38973401  0.34466683    -0.81300
O49         O  0.40192099  0.45031152  0.25050016    -0.79600
O50         O  0.24487995  0.40703865  0.30459637    -0.83800
O51         O  0.26907588  0.36817733  0.24326822    -0.78600
O52         O  0.39479307  0.43032882  0.35559858    -0.80400
O53         O  0.30473413  0.45569160  0.18855317    -0.83100
C54         C  0.30654388  0.35263382  0.25381523     0.97600
C55         C  0.27472914  0.39744791  0.34071836     1.05100
O56         O  0.31904566  0.42405634  0.26960476    -1.12100
O57         O  0.27276206  0.48125946  0.26500651    -0.74600
O58         O  0.21756904  0.44924542  0.23441970    -0.78000
O59         O  0.34848738  0.36277320  0.27056083    -0.78700
C60         C  0.22885618  0.47359157  0.25076506     0.96500
O61         O  0.26291327  0.41477613  0.17972975    -0.76700
O62         O  0.36879812  0.47236923  0.32481736    -0.81900
C63         C  0.42994293  0.42873092  0.26016545     0.99100
C64         C  0.39221561  0.45711745  0.35812245     1.05100
O65         O  0.41974597  0.40654789  0.27854231    -0.77500
C66         C  0.28281928  0.43493206  0.16457475     1.03400
Fe67       Fe  0.25570411  0.41207510  0.74409560     1.65800
Fe68       Fe  0.16989070  0.46116242  0.74925128     1.73200
Fe69       Fe  0.13568972  0.39975998  0.69115048     1.54400
O70         O  0.17287134  0.39584083  0.64443575    -0.81300
O71         O  0.10501916  0.44666984  0.75632659    -0.79600
O72         O  0.24986305  0.40878558  0.67674486    -0.83800
O73         O  0.24335472  0.36945882  0.74743453    -0.78600
O74         O  0.09872508  0.43395978  0.65477201    -0.80400
O75         O  0.20555239  0.44882286  0.81461258    -0.83100
C76         C  0.20774604  0.35280772  0.73660394     0.97600
C77         C  0.21510099  0.40171719  0.64232873     1.05100
O78         O  0.18726503  0.42423697  0.72847773    -1.12100
O79         O  0.23030653  0.48370315  0.74561628    -0.74600
O80         O  0.28500707  0.45121079  0.74320622    -0.78000
O81         O  0.16436657  0.36144130  0.71989403    -0.78700
C82         C  0.27235884  0.47672735  0.74445335     0.96500
O83         O  0.26233238  0.41601299  0.81190766    -0.76700
O84         O  0.13301382  0.47457554  0.68455829    -0.81900
C85         C  0.08036504  0.42405574  0.75123023     0.99100
C86         C  0.10270335  0.46075167  0.65355870     1.05100
O87         O  0.09326014  0.40191773  0.73433191    -0.77500
C88         C  0.23956399  0.43117366  0.83319593     1.03400
Fe89       Fe  0.75793185  0.91588719  0.26170840     1.65800
Fe90       Fe  0.67062284  0.96708532  0.23750859     1.73200
Fe91       Fe  0.64460884  0.90186472  0.19129392     1.54400
O92         O  0.69183819  0.89522171  0.15430621    -0.81300
O93         O  0.59959193  0.95523130  0.23077255    -0.79600
O94         O  0.76735697  0.90269998  0.20057869    -0.83800
O95         O  0.74058191  0.87594345  0.27636838    -0.78600
O96         O  0.61270506  0.93377744  0.14632434    -0.80400
O97         O  0.68882075  0.96146992  0.30695466    -0.83100
C98         C  0.70962159  0.85775393  0.25689327     0.97600
C99         C  0.73759364  0.89675753  0.16205048     1.05100
O100        O  0.69130015  0.92800631  0.23089181    -1.12100
O101        O  0.73613750  0.98700942  0.24379199    -0.74600
O102        O  0.79090207  0.95285265  0.25369341    -0.78000
O103        O  0.67024877  0.86460578  0.22713666    -0.78700
C104        C  0.77919798  0.97870110  0.24865424     0.96500
O105        O  0.74951430  0.92916651  0.32285870    -0.76700
O106        O  0.65318220  0.97361451  0.16865505    -0.81900
C107        C  0.57501618  0.93271472  0.22858501     0.99100
C108        C  0.62494158  0.95853773  0.13810808     1.05100
O109        O  0.59256159  0.90826062  0.22460564    -0.77500
C110        C  0.72061758  0.94601272  0.33496287     1.03400
Fe111      Fe  0.76160700  0.90540199  0.75933195     1.65800
Fe112      Fe  0.84140921  0.95663663  0.75588935     1.73200
Fe113      Fe  0.88170126  0.89580991  0.81200341     1.54400
O114        O  0.84921394  0.89481736  0.86204223    -0.81300
O115        O  0.90906316  0.94379287  0.75112114    -0.79600
O116        O  0.77064267  0.89069388  0.82524091    -0.83800
O117        O  0.77874321  0.86633853  0.73888927    -0.78600
O118        O  0.92047546  0.93082488  0.84439239    -0.80400
O119        O  0.81055775  0.94606455  0.68950445    -0.83100
C120        C  0.80974292  0.84855201  0.76124022     0.97600
C121        C  0.80580150  0.89065944  0.86196494     1.05100
O122        O  0.82794859  0.91894132  0.77482941    -1.12100
O123        O  0.77546686  0.97575136  0.75539118    -0.74600
O124        O  0.73549467  0.94240560  0.77857396    -0.78000
O125        O  0.84998552  0.85639886  0.78870516    -0.78700
C126        C  0.73885660  0.96773359  0.76666575     0.96500
O127        O  0.74735980  0.91928709  0.69214461    -0.76700
O128        O  0.87212951  0.96854536  0.82243712    -0.81900
C129        C  0.93190713  0.92053387  0.75073914     0.99100
C130        C  0.90749898  0.95596730  0.85082288     1.05100
O131        O  0.91864514  0.89724120  0.76409737    -0.77500
C132        C  0.77106256  0.93322122  0.67039609     1.03400
Fe133      Fe  0.25218568  0.08820446  0.25313610     1.65800
Fe134      Fe  0.16430637  0.03876343  0.24405347     1.73200
Fe135      Fe  0.13482236  0.10212899  0.19162558     1.54400
O136        O  0.16586838  0.14024770  0.21958484    -0.81300
O137        O  0.13441883  0.02888282  0.17674521    -0.79600
O138        O  0.23797865  0.12911957  0.26665221    -0.83800
O139        O  0.25289910  0.09904692  0.18869065    -0.78600
O140        O  0.09198977  0.10075603  0.23413746    -0.80400
O141        O  0.22687584  0.01677262  0.24325448    -0.83100
C142        C  0.21976717  0.10338240  0.15139831     0.97600
C143        C  0.20674000  0.14722930  0.24632549     1.05100
O144        O  0.18421154  0.07649206  0.22998683    -1.12100
O145        O  0.19302071  0.04689661  0.31158417    -0.74600
O146        O  0.25331118  0.07820839  0.31791534    -0.78000
O147        O  0.17459858  0.10395674  0.14750974    -0.78700
C148        C  0.22684225  0.06282719  0.33450014     0.96500
O149        O  0.28157458  0.04972378  0.24506378    -0.76700
O150        O  0.09792578  0.05412651  0.24767927    -0.81900
C151        C  0.10297179  0.04334954  0.14739960     0.99100
C152        C  0.07636280  0.07793530  0.24638793     1.05100
O153        O  0.09501990  0.06939547  0.15338910    -0.77500
C154        C  0.26929290  0.02408028  0.24417485     1.03400
Fe155      Fe  0.25109638  0.08665236  0.74989799     1.65800
Fe156      Fe  0.33522664  0.03500593  0.75208445     1.73200
Fe157      Fe  0.36869942  0.09574214  0.81431959     1.54400
O158        O  0.34684999  0.13496552  0.78288323    -0.81300
O159        O  0.36873498  0.02074390  0.81677196    -0.79600
O160        O  0.26834973  0.12838993  0.75023133    -0.83800
O161        O  0.24766612  0.09010500  0.81486729    -0.78600
O162        O  0.41959850  0.09102475  0.77984693    -0.80400
O163        O  0.27208856  0.01424585  0.75416421    -0.83100
C164        C  0.27961165  0.09763070  0.85100537     0.97600
C165        C  0.30432847  0.14454346  0.76380837     1.05100
O166        O  0.31857919  0.07250588  0.77194387    -1.12100
O167        O  0.30354213  0.04688568  0.68571829    -0.74600
O168        O  0.25237994  0.08354937  0.68463066    -0.78000
O169        O  0.32398655  0.10180527  0.85403636    -0.78700
C170        C  0.27371924  0.06618393  0.66542622     0.96500
O171        O  0.21751637  0.04838658  0.74466417    -0.76700
O172        O  0.40239608  0.04833164  0.74826906    -0.81900
C173        C  0.39477852  0.03388171  0.85108672     0.99100
C174        C  0.43078065  0.06929549  0.76066945     1.05100
O175        O  0.39800707  0.06073678  0.85335820    -0.77500
C176        C  0.22860704  0.02244705  0.74831925     1.03400
C177        C  0.25911984  0.04340277  0.45749095    -0.05100
C178        C  0.24058348  0.06729164  0.47449652     0.09100
C179        C  0.21842966  0.08984963  0.44574600    -0.02400
C180        C  0.21540029  0.08869844  0.39989874    -0.00700
C181        C  0.23367422  0.06471374  0.38286942    -0.04300
C182        C  0.25522420  0.04199037  0.41145755     0.02700
C183        C  0.24631296  0.06906217  0.52328787     0.09500
C184        C  0.19842764  0.11400900  0.46337170     0.35400
C185        C  0.27360351  0.01734716  0.39352042     0.38900
C186        C  0.28528318  0.08456169  0.55152189    -0.04700
C187        C  0.29293071  0.08470061  0.59824826     0.02500
C188        C  0.26295828  0.06828140  0.61661569    -0.04300
C189        C  0.22345948  0.05319472  0.58842147    -0.00500
C190        C  0.21442445  0.05413634  0.54150444    -0.03100
C191        C  0.31807655  0.09970444  0.53245091     0.36200
C192        C  0.19299079  0.03623858  0.60785395     0.39800
C193        C  0.33161842  0.10156630  0.62746202     0.38900
C194        C  0.17266376  0.03971031  0.51195566     0.35900
C195        C  0.28245641  0.02045144  0.48753355     0.36500
C196        C  0.19234713  0.11180265  0.36996976     0.39800
N197        N  0.36232028  0.11511053  0.65076284    -0.38300
N198        N  0.34416739  0.11163757  0.51699029    -0.39900
N199        N  0.16901725  0.02261520  0.62354651    -0.37600
N200        N  0.13914809  0.02838150  0.48836137    -0.40000
N201        N  0.18241314  0.13323339  0.47747907    -0.39800
N202        N  0.17394646  0.13017758  0.34605854    -0.37400
N203        N  0.28820277  0.99767331  0.37920087    -0.38500
N204        N  0.30104251  0.00221014  0.51164453    -0.40100
C205        C  0.23395046  0.08214625  0.95042337    -0.05100
C206        C  0.25069281  0.10626908  0.97727642     0.09100
C207        C  0.27301178  0.12857042  0.96102385    -0.02400
C208        C  0.27983130  0.12643206  0.91831543    -0.00700
C209        C  0.26545983  0.10159893  0.89229920    -0.04300
C210        C  0.24206790  0.07955639  0.90826074     0.02700
C211        C  0.24629566  0.10767373  0.02350778     0.09500
C212        C  0.29019300  0.15333064  0.98887522     0.35400
C213        C  0.23082381  0.05302080  0.88380463     0.38900
C214        C  0.27683089  0.09063371  0.05793669    -0.04700
C215        C  0.26941886  0.08967422  0.10055534     0.02500
C216        C  0.23335330  0.10722035  0.10959426    -0.04300
C217        C  0.20610040  0.12631386  0.07606781    -0.00500
C218        C  0.21104688  0.12555173  0.03256699    -0.03100
C219        C  0.31499871  0.07348985  0.04897030     0.36200
C220        C  0.17268216  0.14671802  0.08604454     0.39800
C221        C  0.29685787  0.06929396  0.13368463     0.38900
C222        C  0.17859001  0.14229040  0.99658757     0.35900
C223        C  0.20976776  0.05959361  0.96695252     0.36500
C224        C  0.30223761  0.14968776  0.90146870     0.39800
N225        N  0.31869244  0.05287009  0.15979859    -0.38300
N226        N  0.34544627  0.05987049  0.04179553    -0.39900
N227        N  0.14591570  0.16292470  0.09387460    -0.37600
N228        N  0.15254571  0.15542739  0.96773886    -0.40000
N229        N  0.30380332  0.17305728  0.01114299    -0.39800
N230        N  0.32017857  0.16821421  0.88812810    -0.37400
N231        N  0.22319094  0.03135562  0.86560214    -0.38500
N232        N  0.19063710  0.04161062  0.98024983    -0.40100
C233        C  0.01250487  0.97934567  0.95130261    -0.05100
C234        C  0.98769557  0.99242787  0.97880599     0.09100
C235        C  0.93655462  0.99503611  0.96334030    -0.02400
C236        C  0.91015275  0.98381121  0.92096598    -0.00700
C237        C  0.93499059  0.97048270  0.89333241    -0.04300
C238        C  0.98644646  0.96896681  0.90843923     0.02700
C239        C  0.01621091  0.00540984  0.02256752     0.09500
C240        C  0.91125250  0.00940333  0.99108194     0.35400
C241        C  0.01314251  0.95804930  0.87917702     0.38900
C242        C  0.03560397  0.03270927  0.02258768    -0.04700
C243        C  0.06420376  0.04489862  0.06313530     0.02500
C244        C  0.07394279  0.02980254  0.10441459    -0.04300
C245        C  0.05475748  0.00217759  0.10413786    -0.00500
C246        C  0.02608602  0.99005006  0.06328613    -0.03100
C247        C  0.02685894  0.04805581  0.98036901     0.36200
C248        C  0.06328266  0.98640915  0.14588417     0.39800
C249        C  0.08451148  0.07276374  0.06150752     0.38900
C250        C  0.00720962  0.96159224  0.06287927     0.35900
C251        C  0.06515164  0.97680630  0.96720112     0.36500
C252        C  0.85742576  0.98528254  0.90655437     0.39800
N253        N  0.09994016  0.09508149  0.05912634    -0.38300
N254        N  0.02011673  0.06016061  0.94665968    -0.39900
N255        N  0.07013174  0.97379926  0.17916196    -0.37600
N256        N  0.99225029  0.93884398  0.06245561    -0.40000
N257        N  0.89116881  0.02096533  0.01321776    -0.39800
N258        N  0.81536062  0.98645136  0.89502042    -0.37400
N259        N  0.03536093  0.94988388  0.85625128    -0.38500
N260        N  0.10710649  0.97479473  0.98010918    -0.40100
C261        C  0.60975421  0.99502418  0.75376268    -0.05100
C262        C  0.61643725  0.02455089  0.76010780     0.09100
C263        C  0.66352979  0.03578921  0.76785584    -0.02400
C264        C  0.70375247  0.01758305  0.77023856    -0.00700
C265        C  0.69715106  0.98782318  0.76423770    -0.04300
C266        C  0.64917789  0.97699608  0.75426639     0.02700
C267        C  0.57306688  0.04328852  0.75793521     0.09500
C268        C  0.67049006  0.06618789  0.77302465     0.35400
C269        C  0.63905285  0.94747494  0.74151909     0.38900
C270        C  0.56657810  0.05478736  0.79771292    -0.04700
C271        C  0.52128525  0.06690868  0.79713317     0.02500
C272        C  0.48119066  0.06620168  0.75722247    -0.04300
C273        C  0.48889720  0.05656705  0.71684970    -0.00500
C274        C  0.53501300  0.04603852  0.71698617    -0.03100
C275        C  0.60513719  0.05197637  0.84006957     0.36200
C276        C  0.44875132  0.05602862  0.67548516     0.39800
C277        C  0.51472903  0.07711041  0.83900550     0.38900
C278        C  0.54257513  0.03626458  0.67534110     0.35900
C279        C  0.56178092  0.98295402  0.74620082     0.36500
C280        C  0.75168196  0.02973781  0.77870483     0.39800
N281        N  0.50969210  0.08510896  0.87253223    -0.38300
N282        N  0.63583405  0.04966034  0.87387514    -0.39900
N283        N  0.41693034  0.05517106  0.64232495    -0.37600
N284        N  0.54871766  0.02833296  0.64223285    -0.40000
N285        N  0.67607632  0.09044178  0.77729876    -0.39800
N286        N  0.78982554  0.03953844  0.78509957    -0.37400
N287        N  0.63072181  0.92405092  0.73096798    -0.38500
N288        N  0.52369015  0.97309048  0.73974073    -0.40100
C289        C  0.06675075  0.92378972  0.76443121    -0.05100
C290        C  0.06660044  0.94447911  0.73159300     0.09100
C291        C  0.02260638  0.95093104  0.69791995    -0.02400
C292        C  0.97830267  0.93980750  0.70074715    -0.00700
C293        C  0.97758159  0.92233498  0.73753584    -0.04300
C294        C  0.02235468  0.91250310  0.76720831     0.02700
C295        C  0.10986439  0.96335902  0.73734242     0.09500
C296        C  0.02265181  0.97074082  0.66225951     0.35400
C297        C  0.02276838  0.89296939  0.80331406     0.38900
C298        C  0.14953394  0.95527769  0.72221816    -0.04700
C299        C  0.18860420  0.97421730  0.72615659     0.02500
C300        C  0.18842062  0.00156871  0.74545707    -0.04300
C301        C  0.14762334  0.00958537  0.75982283    -0.00500
C302        C  0.10958154  0.99036312  0.75677807    -0.03100
C303        C  0.14964892  0.92758425  0.70193551     0.36200
C304        C  0.14320477  0.03787814  0.77687902     0.39800
C305        C  0.22706764  0.96613441  0.70728065     0.38900
C306        C  0.06949097  0.99848073  0.77364846     0.35900
C307        C  0.11231304  0.91583385  0.79744520     0.36500
C308        C  0.93306161  0.94730880  0.66677216     0.39800
N309        N  0.25749222  0.95975951  0.69182317    -0.38300
N310        N  0.14978210  0.90542654  0.68586901    -0.39900
N311        N  0.13885832  0.06045473  0.78999115    -0.37600
N312        N  0.03759652  0.00489623  0.78712186    -0.40000
N313        N  0.02279141  0.98664067  0.63395896    -0.39800
N314        N  0.89698202  0.95321642  0.63961696    -0.37400
N315        N  0.02320715  0.87752333  0.83234901    -0.38500
N316        N  0.14880976  0.90953107  0.82366443    -0.40100
C317        C  0.45156762  0.00618083  0.96951531    -0.05100
C318        C  0.49805180  0.99800370  0.96726752     0.09100
C319        C  0.50773236  0.99821324  0.92541623    -0.02400
C320        C  0.47146355  0.00717817  0.88631264    -0.00700
C321        C  0.42650829  0.01758760  0.88927858    -0.04300
C322        C  0.41610367  0.01631778  0.93064983     0.02700
C323        C  0.53650015  0.98871482  0.00893676     0.09500
C324        C  0.55552293  0.99011700  0.92287805     0.35400
C325        C  0.36881006  0.02510081  0.93324979     0.38900
C326        C  0.55002211  0.95988036  0.01512425    -0.04700
C327        C  0.58468645  0.95086921  0.05518552     0.02500
C328        C  0.60209662  0.97006722  0.09164677    -0.04300
C329        C  0.59073556  0.99938462  0.08418226    -0.00500
C330        C  0.55874532  0.00863471  0.04255054    -0.03100
C331        C  0.52630787  0.93918975  0.98115692     0.36200
C332        C  0.60864913  0.01994386  0.11994170     0.39800
C333        C  0.60230230  0.92172683  0.05839164     0.38900
C334        C  0.54699552  0.03858751  0.03482722     0.35900
C335        C  0.44047973  0.00461009  0.01197254     0.36500
C336        C  0.48048943  0.00586822  0.84298493     0.39800
N337        N  0.61625827  0.89850458  0.06038000    -0.38300
N338        N  0.50704706  0.92272344  0.95420682    -0.39900
N339        N  0.62259084  0.03642845  0.14842321    -0.37600
N340        N  0.53741058  0.06243935  0.02855751    -0.40000
N341        N  0.59367432  0.98369070  0.92092827    -0.39800
N342        N  0.48736806  0.00430242  0.80830491    -0.37400
N343        N  0.33119200  0.03170467  0.93621369    -0.38500
N344        N  0.43145903  0.00351729  0.04575590    -0.40100
C345        C  0.74115879  0.88585374  0.95381114    -0.05100
C346        C  0.78103102  0.88400181  0.99321804     0.09100
C347        C  0.82834812  0.88163599  0.98975355    -0.02400
C348        C  0.83619409  0.88188536  0.94710390    -0.00700
C349        C  0.79653210  0.88628465  0.90690033    -0.04300
C350        C  0.74863943  0.88790691  0.91103395     0.02700
C351        C  0.77341447  0.88705084  0.03855076     0.09500
C352        C  0.86931215  0.87967035  0.03055659     0.35400
C353        C  0.70660127  0.89308792  0.87215135     0.38900
C354        C  0.77380454  0.86304599  0.06583247    -0.04700
C355        C  0.76436023  0.86620235  0.10760616     0.02500
C356        C  0.75556148  0.89342660  0.12258409    -0.04300
C357        C  0.75625934  0.91747618  0.09570416    -0.00500
C358        C  0.76534242  0.91430261  0.05393428    -0.03100
C359        C  0.78291564  0.83509997  0.05040183     0.36200
C360        C  0.74566388  0.94546078  0.11018729     0.39800
C361        C  0.76166961  0.84139019  0.13426915     0.38900
C362        C  0.76553080  0.93905718  0.02623537     0.35900
C363        C  0.69217807  0.88605072  0.95761205     0.36500
C364        C  0.88571959  0.87770452  0.94577060     0.39800
N365        N  0.75918158  0.82150772  0.15525594    -0.38300
N366        N  0.79041722  0.81281448  0.03813617    -0.39900
N367        N  0.73737519  0.96782307  0.12163037    -0.37600
N368        N  0.76556583  0.95872091  0.00397025    -0.40000
N369        N  0.90188365  0.87816737  0.06311431    -0.39800
N370        N  0.92534893  0.87443209  0.94513426    -0.37400
N371        N  0.67275405  0.89748795  0.84153469    -0.38500
N372        N  0.65320289  0.88595250  0.96078223    -0.40100
C373        C  0.77194696  0.94110400  0.46357452    -0.05100
C374        C  0.72940328  0.94310770  0.47687961     0.09100
C375        C  0.68428130  0.94814052  0.44409192    -0.02400
C376        C  0.68134527  0.95021241  0.39796661    -0.00700
C377        C  0.72380937  0.94697015  0.38406904    -0.04300
C378        C  0.76934478  0.94317050  0.41761892     0.02700
C379        C  0.73276845  0.94033828  0.52580877     0.09500
C380        C  0.64070660  0.95087728  0.45797736     0.35400
C381        C  0.81407899  0.94223989  0.40532411     0.38900
C382        C  0.73519269  0.96482919  0.55248664    -0.04700
C383        C  0.74476974  0.96231597  0.59956997     0.02500
C384        C  0.75224360  0.93527049  0.62040188    -0.04300
C385        C  0.74621408  0.91069079  0.59328802    -0.00500
C386        C  0.73654834  0.91324880  0.54610189    -0.03100
C387        C  0.72877918  0.99265130  0.53148576     0.36200
C388        C  0.75205607  0.88280751  0.61403682     0.39800
C389        C  0.74658900  0.98761193  0.62668832     0.38900
C390        C  0.73145234  0.88803765  0.51834962     0.35900
C391        C  0.81867645  0.93697646  0.49749518     0.36500
C392        C  0.63418592  0.95520061  0.36518039     0.39800
N393        N  0.74778800  0.00772430  0.64838415    -0.38300
N394        N  0.72339568  0.01481665  0.51460273    -0.39900
N395        N  0.75657176  0.86052873  0.63051268    -0.37600
N396        N  0.72726127  0.86797281  0.49605785    -0.40000
N397        N  0.60602419  0.95311825  0.46915786    -0.39800
N398        N  0.59646497  0.95953888  0.33939959    -0.37400
N399        N  0.84976046  0.94151388  0.39554550    -0.38500
N400        N  0.85589066  0.93366569  0.52459225    -0.40100
C401        C  0.89193415  0.01190540  0.22995403    -0.05100
C402        C  0.89560322  0.03752774  0.25426316     0.09100
C403        C  0.86026447  0.04435954  0.27568956    -0.02400
C404        C  0.82160484  0.02551684  0.27320259    -0.00700
C405        C  0.81793613  0.99966434  0.24901408    -0.04300
C406        C  0.85352004  0.99307423  0.22734530     0.02700
C407        C  0.93823810  0.05638337  0.25804948     0.09500
C408        C  0.86434789  0.07054827  0.30102754     0.35400
C409        C  0.85134836  0.96678353  0.20244466     0.38900
C410        C  0.94104255  0.07173350  0.21996044    -0.04700
C411        C  0.98608153  0.08236547  0.21840282     0.02500
C412        C  0.02851373  0.07748224  0.25487860    -0.04300
C413        C  0.02449245  0.06520807  0.29499504    -0.00500
C414        C  0.97932590  0.05479204  0.29666419    -0.03100
C415        C  0.89841531  0.07428792  0.18083025     0.36200
C416        C  0.06746377  0.06184786  0.33362746     0.39800
C417        C  0.98959442  0.09551767  0.17733284     0.38900
C418        C  0.97589236  0.04060233  0.33693185     0.35900
C419        C  0.92852159  0.00464752  0.20814910     0.36500
C420        C  0.78738586  0.03207424  0.29782649     0.39800
N421        N  0.99250238  0.10590225  0.14454632    -0.38300
N422        N  0.86449769  0.07609286  0.14948714    -0.39900
N423        N  0.10164799  0.05912655  0.36452248    -0.37600
N424        N  0.97299549  0.02940227  0.36911159    -0.40000
N425        N  0.86782379  0.09138276  0.32145316    -0.39800
N426        N  0.76022803  0.03723831  0.31765847    -0.37400
N427        N  0.85059058  0.94577332  0.18294241    -0.38500
N428        N  0.95763455  0.99900403  0.19069857    -0.40100
C429        C  0.39248846  0.98701947  0.27763777    -0.05100
C430        C  0.38671321  0.96711301  0.24250901     0.09100
C431        C  0.34030252  0.96363472  0.21069474    -0.02400
C432        C  0.30092007  0.98139373  0.21205165    -0.00700
C433        C  0.30749364  0.00229049  0.24587299    -0.04300
C434        C  0.35293541  0.00418830  0.27972413     0.02700
C435        C  0.43112077  0.95386902  0.23475145     0.09500
C436        C  0.33396089  0.94288801  0.17498077     0.35400
C437        C  0.35939550  0.02429778  0.31644685     0.38900
C438        C  0.45856614  0.93251130  0.26360231    -0.04700
C439        C  0.50477506  0.92403044  0.26037973     0.02500
C440        C  0.52326183  0.93655496  0.22774113    -0.04300
C441        C  0.49342809  0.95596617  0.19642180    -0.00500
C442        C  0.44841035  0.96507892  0.20057821    -0.03100
C443        C  0.43976808  0.91997891  0.29739862     0.36200
C444        C  0.50823877  0.96674353  0.15910171     0.39800
C445        C  0.53421387  0.90361531  0.29200971     0.38900
C446        C  0.42086103  0.98715988  0.17077143     0.35900
C447        C  0.44006613  0.99119095  0.31000111     0.36500
C448        C  0.25482948  0.97962421  0.17674564     0.39800
N449        N  0.55788861  0.88738811  0.31734335    -0.38300
N450        N  0.42458281  0.91001145  0.32432739    -0.39900
N451        N  0.51733586  0.97588196  0.12819036    -0.37600
N452        N  0.39903210  0.00474374  0.14702874    -0.40000
N453        N  0.32903431  0.92643970  0.14633367    -0.39800
N454        N  0.21807679  0.97841802  0.14848109    -0.37400
N455        N  0.36456937  0.04030674  0.34573099    -0.38500
N456        N  0.47806964  0.99455860  0.33565475    -0.40100
C457        C  0.30841749  0.22422981  0.73890179    -0.05100
C458        C  0.26622036  0.23402564  0.74876659     0.09100
C459        C  0.23749988  0.21465727  0.76362789    -0.02400
C460        C  0.25173763  0.18598935  0.77059703    -0.00700
C461        C  0.29343163  0.17570576  0.75979761    -0.04300
C462        C  0.32179489  0.19507791  0.74399355     0.02700
C463        C  0.25210809  0.26486885  0.74529889     0.09500
C464        C  0.19258268  0.22428645  0.77119756     0.35400
C465        C  0.36375432  0.18499192  0.73178431     0.38900
C466        C  0.22655184  0.27694060  0.70324458    -0.04700
C467        C  0.21035233  0.30545192  0.70068906     0.02500
C468        C  0.21866378  0.32191182  0.74035647    -0.04300
C469        C  0.24357451  0.30969225  0.78244645    -0.00500
C470        C  0.26038295  0.28132325  0.78489407    -0.03100
C471        C  0.21668744  0.25992766  0.66264586     0.36200
C472        C  0.25129209  0.32627523  0.82328089     0.39800
C473        C  0.18711647  0.31822693  0.65694236     0.38900
C474        C  0.28610394  0.26889328  0.82824509     0.35900
C475        C  0.33768084  0.24417318  0.72312537     0.36500
C476        C  0.22388540  0.16741367  0.79060524     0.39800
N477        N  0.16887327  0.32842620  0.62202579    -0.38300
N478        N  0.20875917  0.24635834  0.63024152    -0.39900
N479        N  0.25716457  0.33955253  0.85578269    -0.37600
N480        N  0.30653656  0.25882009  0.86273837    -0.40000
N481        N  0.15662644  0.23197577  0.77684261    -0.39800
N482        N  0.20152097  0.15288199  0.80672998    -0.37400
N483        N  0.39721946  0.17695101  0.72192442    -0.38500
N484        N  0.36084792  0.26015760  0.71038881    -0.40100
C485        C  0.25007928  0.28138507  0.21264432    -0.05100
C486        C  0.26752332  0.26489635  0.25213612     0.09100
C487        C  0.30267718  0.27618500  0.29001411    -0.02400
C488        C  0.31883866  0.30428182  0.28913460    -0.00700
C489        C  0.29937039  0.32144104  0.25039724    -0.04300
C490        C  0.26574974  0.30959331  0.21178089     0.02700
C491        C  0.25178666  0.23476574  0.25253811     0.09500
C492        C  0.32150997  0.25895134  0.33024723     0.35400
C493        C  0.24718905  0.32640580  0.17105110     0.38900
C494        C  0.28127791  0.21299222  0.24369312    -0.04700
C495        C  0.26660118  0.18455167  0.24247876     0.02500
C496        C  0.22199567  0.17747946  0.25031414    -0.04300
C497        C  0.19261686  0.19936071  0.25960985    -0.00500
C498        C  0.20759628  0.22797123  0.26083950    -0.03100
C499        C  0.32665979  0.22003583  0.23512047     0.36200
C500        C  0.14778037  0.19240191  0.26900710     0.39800
C501        C  0.29710855  0.16279877  0.23133501     0.38900
C502        C  0.17778483  0.25048385  0.27075234     0.35900
C503        C  0.21586281  0.26922725  0.17291064     0.36500
C504        C  0.35326981  0.31595275  0.32924712     0.39800
N505        N  0.32206541  0.14582490  0.22254399    -0.38300
N506        N  0.36280726  0.22577073  0.22840109    -0.39900
N507        N  0.11205922  0.18682686  0.27666994    -0.37600
N508        N  0.15411411  0.26852901  0.27867642    -0.40000
N509        N  0.33653101  0.24517366  0.36230087    -0.39800
N510        N  0.38057850  0.32526708  0.36129924    -0.37400
N511        N  0.23222717  0.33967716  0.13842941    -0.38500
N512        N  0.18861190  0.25943469  0.14127365    -0.40100
C513        C  0.30609855  0.43661396  0.95787919    -0.05100
C514        C  0.26949878  0.42754716  0.97614601     0.09100
C515        C  0.22490861  0.41754583  0.94768678    -0.02400
C516        C  0.21641352  0.41723285  0.90082973    -0.00700
C517        C  0.25187600  0.42779862  0.88229950    -0.04300
C518        C  0.29713805  0.43699300  0.91080163     0.02700
C519        C  0.27640248  0.43010486  0.02523449     0.09500
C520        C  0.18715949  0.40853901  0.96662296     0.35400
C521        C  0.33342015  0.44806567  0.89168439     0.38900
C522        C  0.26246251  0.45543177  0.04234370    -0.04700
C523        C  0.26480833  0.45722898  0.08808624     0.02500
C524        C  0.28158894  0.43371617  0.11684937    -0.04300
C525        C  0.29787279  0.40885559  0.10002615    -0.00500
C526        C  0.29448773  0.40690667  0.05407138    -0.03100
C527        C  0.24487683  0.47942491  0.01247923     0.36200
C528        C  0.32012826  0.38577345  0.13033258     0.39800
C529        C  0.24861619  0.48295661  0.10509952     0.38900
C530        C  0.30911120  0.38099455  0.03624498     0.35900
C531        C  0.35221940  0.44633523  0.98758852     0.36500
C532        C  0.17127438  0.40584105  0.87166311     0.39800
N533        N  0.23571654  0.50352142  0.11857817    -0.38300
N534        N  0.23097471  0.49848675  0.98847743    -0.39900
N535        N  0.33837967  0.36751803  0.15457743    -0.37600
N536        N  0.32061195  0.36029809  0.02197220    -0.40000
N537        N  0.15694948  0.40156120  0.98172490    -0.39800
N538        N  0.13542899  0.39647486  0.84862274    -0.37400
N539        N  0.36230764  0.45700446  0.87645526    -0.38500
N540        N  0.38895411  0.45404880  0.01148363    -0.40100
C541        C  0.25143814  0.42465560  0.44572418    -0.05100
C542        C  0.24642685  0.39904232  0.46706788     0.09100
C543        C  0.24764694  0.37277315  0.44570408    -0.02400
C544        C  0.25478103  0.37207947  0.40299497    -0.00700
C545        C  0.26002553  0.39769872  0.38172762    -0.04300
C546        C  0.25752625  0.42402867  0.40269334     0.02700
C547        C  0.23874383  0.39980191  0.51193535     0.09500
C548        C  0.24237938  0.34656658  0.46816698     0.35400
C549        C  0.26390722  0.45042528  0.38113936     0.38900
C550        C  0.19157098  0.40390064  0.51494299    -0.04700
C551        C  0.18381513  0.40505997  0.55733887     0.02500
C552        C  0.22343832  0.40083908  0.59732178     0.00500
C553        C  0.27096201  0.39647173  0.59361711    -0.00500
C554        C  0.27849218  0.39659986  0.55101623    -0.03100
C555        C  0.15094404  0.40706972  0.47404264     0.36200
C556        C  0.31240518  0.39124389  0.63307399     0.39800
C557        C  0.13493275  0.41148172  0.55882255     0.38900
C558        C  0.32726466  0.39363088  0.54717637     0.35900
C559        C  0.25222347  0.45150455  0.46887127     0.36500
C560        C  0.25643046  0.34513842  0.38088589     0.39800
N561        N  0.09567830  0.41652141  0.55915826    -0.38300
N562        N  0.11867322  0.40952121  0.44141419    -0.39900
N563        N  0.34566614  0.38714004  0.66436243    -0.37600
N564        N  0.36613945  0.39141246  0.54409177    -0.40000
N565        N  0.23831314  0.32574716  0.48636311    -0.39800
N566        N  0.25736842  0.32354450  0.36339283    -0.37400
N567        N  0.26904244  0.47154957  0.36424730    -0.38500
N568        N  0.25328976  0.47288448  0.48748703    -0.40100
C569        C  0.79874558  0.72412290  0.30438286    -0.05100
C570        C  0.76244535  0.73762919  0.26917884     0.09100
C571        C  0.74003310  0.72232352  0.22934759    -0.02400
C572        C  0.75227254  0.69353692  0.22542814    -0.00700
C573        C  0.78921913  0.68012404  0.26023814    -0.04300
C574        C  0.81296182  0.69579728  0.29948848     0.02700
C575        C  0.75017776  0.76856070  0.27227857     0.09500
C576        C  0.70459410  0.73639040  0.19204686     0.35400
C577        C  0.84994198  0.68228043  0.33632739     0.38900
C578        C  0.78428772  0.78928475  0.27000705    -0.04700
C579        C  0.77155735  0.81831491  0.26749251     0.02500
C580        C  0.72373979  0.82716252  0.26605936    -0.04300
C581        C  0.69002814  0.80641513  0.26971385    -0.00500
C582        C  0.70353734  0.77729974  0.27373538    -0.03100
C583        C  0.83222159  0.78065502  0.26829675     0.36200
C584        C  0.64148061  0.81496597  0.26932137     0.39800
C585        C  0.80741792  0.83877078  0.26334356     0.38900
C586        C  0.66929238  0.75620856  0.27887820     0.35900
C587        C  0.82078579  0.73919603  0.34615702     0.36500
C588        C  0.72650628  0.67770769  0.18549513     0.39800
N589        N  0.83624233  0.85488564  0.26006629    -0.38300
N590        N  0.87047495  0.77377973  0.26718031    -0.39900
N591        N  0.60267560  0.82182043  0.26881475    -0.37600
N592        N  0.64199767  0.73933820  0.28298779    -0.40000
N593        N  0.67638326  0.74778711  0.16247118    -0.39800
N594        N  0.70554243  0.66507739  0.15377550    -0.37400
N595        N  0.87930682  0.67147471  0.36573195    -0.38500
N596        N  0.83851454  0.75113741  0.37952080    -0.40100
C597        C  0.05731862  0.50828295  0.54988675    -0.05100
C598        C  0.00805519  0.50031904  0.53387794     0.09100
C599        C  0.98923232  0.48090545  0.55838901    -0.02400
C600        C  0.02001412  0.46837798  0.59778642    -0.00700
C601        C  0.06980124  0.47589837  0.61394959    -0.04300
C602        C  0.08810823  0.49633060  0.59010231     0.02700
C603        C  0.97613610  0.51143405  0.49001497     0.09500
C604        C  0.93809934  0.47349080  0.54247056     0.35400
C605        C  0.13911710  0.50388225  0.60533281     0.38900
C606        C  0.97363243  0.49691658  0.44977994    -0.04700
C607        C  0.94471723  0.50777062  0.40799201     0.02500
C608        C  0.91717780  0.53307058  0.40629779    -0.04300
C609        C  0.91857971  0.54693298  0.44735741    -0.00500
C610        C  0.94779832  0.53600913  0.48890355    -0.03100
C611        C  0.00094387  0.47067403  0.45164127     0.36200
C612        C  0.89064426  0.57269409  0.44758229     0.39800
C613        C  0.94568349  0.49355170  0.36687455     0.38900
C614        C  0.94859219  0.54995727  0.53078310     0.35900
C615        C  0.07642723  0.52823581  0.52417154     0.36500
C616        C  0.99992244  0.44735679  0.62088476     0.39800
N617        N  0.94659452  0.48219218  0.33412750    -0.38300
N618        N  0.02255273  0.44966007  0.45343584    -0.39900
N619        N  0.86942043  0.59351949  0.44862232    -0.37600
N620        N  0.94896373  0.56099417  0.56414355    -0.40000
N621        N  0.89732588  0.46768129  0.52986070    -0.39800
N622        N  0.98273384  0.43039620  0.63801452    -0.37400
N623        N  0.17982394  0.50988684  0.61748015    -0.38500
N624        N  0.09151557  0.54408169  0.50341232    -0.40100
C625        C  0.65202129  0.45950919  0.23941286    -0.05100
C626        C  0.61347608  0.46869573  0.25525191     0.09100
C627        C  0.61478094  0.49588838  0.27450811    -0.02400
C628        C  0.65368342  0.51419776  0.27679441    -0.00700
C629        C  0.69151524  0.50564354  0.25918376    -0.04300
C630        C  0.69124443  0.47785256  0.24166970     0.02700
C631        C  0.57018748  0.45051988  0.25113963     0.09500
C632        C  0.57519926  0.50529797  0.29111418     0.35400
C633        C  0.73041841  0.46834215  0.22475780     0.38900
C634        C  0.56645352  0.43549580  0.28907996    -0.04700
C635        C  0.52081681  0.42580113  0.29044569     0.02500
C636        C  0.47868090  0.43105560  0.25355487    -0.04300
C637        C  0.48362431  0.44330043  0.21369096    -0.00500
C638        C  0.52939628  0.45292057  0.21249854    -0.03100
C639        C  0.60905996  0.43193615  0.32801251     0.36200
C640        C  0.44128715  0.44711083  0.17456767     0.39800
C641        C  0.51681023  0.41310464  0.33168761     0.38900
C642        C  0.53413815  0.46693689  0.17256609     0.35900
C643        C  0.65053608  0.43146434  0.21987030     0.36500
C644        C  0.65483132  0.54163605  0.29831391     0.39800
N645        N  0.51355648  0.40310188  0.36462480    -0.38300
N646        N  0.64300032  0.42911069  0.35910287    -0.39900
N647        N  0.40756072  0.45024879  0.14336049    -0.37600
N648        N  0.53822055  0.47807919  0.14077582    -0.40000
N649        N  0.54356048  0.51277281  0.30419331    -0.39800
N650        N  0.65466109  0.56327932  0.31588979    -0.37400
N651        N  0.76174778  0.46058161  0.21145483    -0.38500
N652        N  0.64909350  0.40909882  0.20412233    -0.40100
C653        C  0.06104987  0.55906387  0.29251877    -0.05100
C654        C  0.06421836  0.54603708  0.25264172     0.09100
C655        C  0.02350460  0.54661029  0.21365795    -0.02400
C656        C  0.97890747  0.55846039  0.21538714    -0.00700
C657        C  0.97449413  0.56936449  0.25640765    -0.04300
C658        C  0.01627988  0.57037220  0.29466984     0.02700
C659        C  0.10792235  0.52821746  0.25362616     0.09500
C660        C  0.02679454  0.53338521  0.17254203     0.35400
C661        C  0.01223747  0.58012192  0.33770634     0.38900
C662        C  0.11069358  0.50000670  0.26928685    -0.04700
C663        C  0.15049905  0.48246774  0.26910401     0.02500
C664        C  0.18858712  0.49305282  0.25358817    -0.04300
C665        C  0.18638531  0.52168617  0.23919000    -0.00500
C666        C  0.14595720  0.53908777  0.23887601    -0.03100
C667        C  0.07210538  0.48891809  0.28543792     0.36200
C668        C  0.22472563  0.53304708  0.22315991     0.39800
C669        C  0.15193892  0.45357753  0.28567279     0.38900
C670        C  0.14297936  0.56811535  0.22284896     0.35900
C671        C  0.10327178  0.55911182  0.33225625     0.36500
C672        C  0.93687594  0.55826846  0.17543572     0.39800
N673        N  0.15168054  0.43065584  0.29893328    -0.38300
N674        N  0.04148170  0.48006980  0.29844494    -0.39900
N675        N  0.25536683  0.54219279  0.21046733    -0.37600
N676        N  0.14031756  0.59128538  0.20995525    -0.40000
N677        N  0.02950894  0.52271430  0.13984339    -0.39800
N678        N  0.90332325  0.55808138  0.14361325    -0.37400
N679        N  0.00892220  0.58760164  0.37212915    -0.38500
N680        N  0.13698327  0.55910589  0.36392484    -0.40100
C681        C  0.71996497  0.71843368  0.71656090    -0.05100
C682        C  0.75171969  0.72939153  0.75685647     0.09100
C683        C  0.76612030  0.71189507  0.79561075    -0.02400
C684        C  0.75019460  0.68340464  0.79362512    -0.00700
C685        C  0.71892516  0.67230725  0.75306165    -0.04300
C686        C  0.70373771  0.69010380  0.71458337     0.02700
C687        C  0.76785023  0.75985257  0.75864440     0.09500
C688        C  0.79707482  0.72333807  0.83761286     0.35400
C689        C  0.67362452  0.67883326  0.67197424     0.38900
C690        C  0.73641855  0.78168494  0.76412205    -0.04700
C691        C  0.74969251  0.81042193  0.76346076     0.02500
C692        C  0.79546149  0.81787057  0.75840132    -0.04300
C693        C  0.82703714  0.79592266  0.75301222    -0.00500
C694        C  0.81300836  0.76707395  0.75258668    -0.03100
C695        C  0.69007799  0.77445288  0.77047769     0.36200
C696        C  0.87303228  0.80304878  0.74605811     0.39800
C697        C  0.71599573  0.83224809  0.76882972     0.38900
C698        C  0.84450220  0.74475484  0.74491297     0.35900
C699        C  0.70442711  0.73636641  0.67681608     0.36500
C700        C  0.76575893  0.66548410  0.83337377     0.39800
N701        N  0.68865570  0.84948573  0.77264020    -0.38300
N702        N  0.65316625  0.76861659  0.77553762    -0.39900
N703        N  0.90966359  0.80878139  0.74030782    -0.37600
N704        N  0.86943757  0.72688055  0.73855371    -0.40000
N705        N  0.82165236  0.73252428  0.87118090    -0.39800
N706        N  0.77807189  0.65108906  0.86498986    -0.37400
N707        N  0.64980942  0.66988333  0.63789333    -0.38500
N708        N  0.69201825  0.75077109  0.64522967    -0.40100
C709        C  0.49183903  0.52220131  0.55407654    -0.05100
C710        C  0.51123358  0.50313975  0.52901868     0.09100
C711        C  0.55993686  0.49375903  0.54636536    -0.02400
C712        C  0.58953840  0.50388549  0.58838731    -0.00700
C713        C  0.57039720  0.52347960  0.61333760    -0.04300
C714        C  0.52095581  0.53202037  0.59623411     0.02700
C715        C  0.47940761  0.49208678  0.48504631     0.09500
C716        C  0.57958800  0.47393971  0.52049910     0.35400
C717        C  0.49918115  0.55037434  0.62237619     0.38900
C718        C  0.47680386  0.50610472  0.44435764    -0.04700
C719        C  0.44639284  0.49566837  0.40294096     0.02500
C720        C  0.41912617  0.47062185  0.40191903    -0.04300
C721        C  0.42134714  0.45700719  0.44323241    -0.00500
C722        C  0.45092460  0.46791225  0.48446397    -0.03100
C723        C  0.50616101  0.53106440  0.44525682     0.36200
C724        C  0.39355457  0.43156961  0.44385086     0.39800
C725        C  0.44489760  0.51022783  0.36146193     0.38900
C726        C  0.45236504  0.45415314  0.52659731     0.35900
C727        C  0.44176842  0.53189212  0.53613100     0.36500
C728        C  0.63997660  0.49476073  0.60505170     0.39800
N729        N  0.44353494  0.52199694  0.32845201    -0.38300
N730        N  0.52978492  0.55090781  0.44614911    -0.39900
N731        N  0.37224577  0.41101714  0.44485378    -0.37600
N732        N  0.45345525  0.44328839  0.56024293    -0.40000
N733        N  0.59507282  0.45815916  0.49965412    -0.39800
N734        N  0.68017346  0.48738633  0.61836430    -0.37400
N735        N  0.48101449  0.56490278  0.64274543    -0.38500
N736        N  0.40192380  0.53970362  0.52170668    -0.40100
C737        C  0.74364309  0.63142028  0.45020528    -0.05100
C738        C  0.74338983  0.60588358  0.47365779     0.09100
C739        C  0.74917503  0.57958800  0.45414774    -0.02400
C740        C  0.75628094  0.57884703  0.41146044    -0.00700
C741        C  0.75758782  0.60446786  0.38832979    -0.04300
C742        C  0.75070494  0.63071117  0.40742660     0.02700
C743        C  0.73498829  0.60636099  0.51837468     0.09500
C744        C  0.74829624  0.55336103  0.47836507     0.35400
C745        C  0.74961022  0.65686290  0.38261403     0.38900
C746        C  0.68826238  0.60076076  0.52123894    -0.04700
C747        C  0.68063622  0.59827755  0.56358920     0.02500
C748        C  0.72009478  0.60186700  0.60370137    -0.04300
C749        C  0.76648002  0.60917337  0.60023117    -0.00500
C750        C  0.77392387  0.61098421  0.55763520    -0.03100
C751        C  0.64817542  0.59703190  0.48019343     0.36200
C752        C  0.80647830  0.61558756  0.64014127     0.39800
C753        C  0.63212615  0.59127683  0.56491503     0.38900
C754        C  0.82182801  0.61721420  0.55404390     0.35900
C755        C  0.73640472  0.65831622  0.47010649     0.36500
C756        C  0.76461283  0.55180803  0.39240390     0.39800
N757        N  0.59307009  0.58596533  0.56508341    -0.38300
N758        N  0.61652194  0.59410331  0.44729914    -0.39900
N759        N  0.83839181  0.62075309  0.67192578    -0.37600
N760        N  0.85999292  0.62218970  0.55111910    -0.40000
N761        N  0.74741214  0.53252143  0.49776489    -0.39800
N762        N  0.77135568  0.53020966  0.37744299    -0.37400
N763        N  0.74806341  0.67783450  0.36289690    -0.38500
N764        N  0.73065995  0.67975844  0.48605158    -0.40100
C765        C  0.72083321  0.58170564  0.94731208    -0.05100
C766        C  0.76134902  0.56888956  0.97876869     0.09100
C767        C  0.79708713  0.55487378  0.96365860    -0.02400
C768        C  0.79064714  0.55206062  0.91704823    -0.00700
C769        C  0.74932762  0.56415451  0.88566875    -0.04300
C770        C  0.71531464  0.57977225  0.90091510     0.02700
C771        C  0.76472287  0.56863685  0.02762081     0.09500
C772        C  0.84022071  0.54327107  0.99622216     0.35400
C773        C  0.67480387  0.59416354  0.86882184     0.38900
C774        C  0.75144358  0.54404271  0.04675561    -0.04700
C775        C  0.75369544  0.54365148  0.09262397     0.02500
C776        C  0.76970359  0.56781640  0.11980817    -0.04300
C777        C  0.78264166  0.59255770  0.10043331    -0.00500
C778        C  0.77978620  0.59299621  0.05437802    -0.03100
C779        C  0.73471511  0.51924368  0.01886801     0.36200
C780        C  0.80057778  0.61727728  0.12814463     0.39800
C781        C  0.73769038  0.51870385  0.11125682     0.38900
C782        C  0.79230746  0.61849793  0.03439421     0.35900
C783        C  0.68432043  0.59641156  0.96268275     0.36500
C784        C  0.82555889  0.53604181  0.90134381     0.39800
N785        N  0.72451226  0.49877737  0.12572226    -0.38300
N786        N  0.72147004  0.49951404  0.99649964    -0.39900
N787        N  0.81499480  0.63695803  0.15026488    -0.37600
N788        N  0.80193058  0.63889455  0.01832483    -0.40000
N789        N  0.87469470  0.53422186  0.02241572    -0.39800
N790        N  0.85326465  0.52313562  0.88876414    -0.37400
N791        N  0.64274601  0.60600781  0.84353348    -0.38500
N792        N  0.65520399  0.60817213  0.97490328    -0.40100
C793        C  0.85754443  0.45286527  0.77318535    -0.05100
C794        C  0.88829327  0.45789633  0.74634549     0.09100
C795        C  0.87571890  0.47936186  0.71308667    -0.02400
C796        C  0.83536904  0.49740793  0.70959559    -0.00700
C797        C  0.80684624  0.49403182  0.73917207    -0.04300
C798        C  0.81674659  0.47072083  0.76947577     0.02700
C799        C  0.93703921  0.44338704  0.75654404     0.09500
C800        C  0.90549066  0.48361798  0.68347597     0.35400
C801        C  0.78690331  0.46602602  0.79885752     0.38900
C802        C  0.94411824  0.41949288  0.73185487    -0.04700
C803        C  0.99181582  0.40985547  0.73536763     0.02500
C804        C  0.03268845  0.42526610  0.76166202    -0.04300
C805        C  0.02498695  0.44625609  0.79163457    -0.00500
C806        C  0.97737281  0.45523826  0.78896656    -0.03100
C807        C  0.90231791  0.40559932  0.70152095     0.36200
C808        C  0.06599096  0.45905427  0.82487048     0.39800
C809        C  0.99820706  0.38505910  0.70998095     0.38900
C810        C  0.96975989  0.47751821  0.81844271     0.35900
C811        C  0.86925353  0.42998323  0.80591637     0.36500
C812        C  0.82359672  0.51971567  0.67574131     0.39800
N813        N  0.00316121  0.36527971  0.68963436    -0.38300
N814        N  0.86895994  0.39448078  0.67731470    -0.39900
N815        N  0.09862328  0.46929553  0.85140791    -0.37600
N816        N  0.96337860  0.49512652  0.84206695    -0.40000
N817        N  0.92893183  0.48716919  0.65963081    -0.39800
N818        N  0.81433749  0.53750012  0.64876361    -0.37400
N819        N  0.76303921  0.46217924  0.82225110    -0.38500
N820        N  0.87878988  0.41168925  0.83199328    -0.40100
C821        C  0.36764534  0.53338646  0.79065425    -0.05100
C822        C  0.39464143  0.53186779  0.75961589     0.09100
C823        C  0.37807650  0.51447999  0.72106867    -0.02400
C824        C  0.33577235  0.49808429  0.71434857    -0.00700
C825        C  0.30985045  0.49861773  0.74638949    -0.04300
C826        C  0.32540478  0.51682320  0.78411172     0.02700
C827        C  0.44249217  0.54674690  0.76877620     0.09500
C828        C  0.40610694  0.51218904  0.68948699     0.35400
C829        C  0.30006060  0.51698668  0.81793992     0.38900
C830        C  0.48472983  0.53479934  0.79919792    -0.04700
C831        C  0.53091823  0.54555430  0.80151882     0.02500
C832        C  0.53543678  0.56719330  0.77143776    -0.04300
C833        C  0.49285899  0.58203870  0.74649835    -0.00500
C834        C  0.44650308  0.57152740  0.74473017    -0.03100
C835        C  0.48087326  0.51031126  0.82610907     0.36200
C836        C  0.49621159  0.60723367  0.72090379     0.39800
C837        C  0.57394251  0.53410470  0.83456491     0.38900
C838        C  0.40284886  0.58531901  0.71641081     0.35900
C839        C  0.38482134  0.55096225  0.83048058     0.36500
C840        C  0.31944047  0.48012600  0.67477456     0.39800
N841        N  0.60827391  0.52518693  0.86111577    -0.38300
N842        N  0.47771976  0.49073515  0.84747420    -0.39900
N843        N  0.49876563  0.62736805  0.70046332    -0.37600
N844        N  0.36797971  0.59627993  0.69376055    -0.40000
N845        N  0.42840634  0.51005338  0.66430111    -0.39800
N846        N  0.30646725  0.46581878  0.64322266    -0.37400
N847        N  0.27995107  0.51699160  0.84501917    -0.38500
N848        N  0.39890395  0.56482368  0.86242182    -0.40100
loop_ 
_geom_bond_atom_site_label_1 
_geom_bond_atom_site_label_2 
_geom_bond_distance 
_geom_bond_site_symmetry_2 
_ccdc_geom_bond_type 
Fe1          O17   2.054       .  S
Fe1           O7   2.065       .  S
Fe1          O14   2.075       .  S
Fe1           O6   2.060       .  S
Fe1          O12   1.966       .  S
Fe2           O5   2.073       .  S
Fe2           O9   2.073       .  S
Fe2          O13   2.073       .  S
Fe2          O18   2.059       .  S
Fe2          O12   1.970       .  S
Fe3          O21   2.072       .  S
Fe3           O8   2.074       .  S
Fe3          O15   2.057       .  S
Fe3           O4   2.076       .  S
Fe3          O12   1.969       .  S
O4           C11   1.268       .  A
O5           C19   1.274       .  A
O6           C11   1.263       .  A
O7           C10   1.276       .  A
O8           C20   1.269       .  A
O9           C22   1.262       .  A
C10          O15   1.272       .  A
C10         C748   1.489       .  S
C11         C685   1.494       .  S
O13          C16   1.278       .  A
O14          C16   1.278       .  A
C16         C769   1.474       .  S
O17          C22   1.260       .  A
O18          C20   1.267       .  A
C19          O21   1.273       .  A
C19         C713   1.492       .  S
C20         C832   1.500       .  S
C22         C797   1.496       .  S
Fe23         O39   2.062       .  S
Fe23         O29   2.042       .  S
Fe23         O36   2.053       .  S
Fe23         O28   2.063       .  S
Fe23         O34   1.956       .  S
Fe24         O27   2.080       .  S
Fe24         O31   2.063       .  S
Fe24         O35   2.099       .  S
Fe24         O40   2.052       .  S
Fe24         O34   1.949       .  S
Fe25         O43   2.045       .  S
Fe25         O30   2.082       .  S
Fe25         O37   2.085       .  S
Fe25         O26   2.065       .  S
Fe25         O34   1.956       .  S
O26          C33   1.265       .  A
O27          C41   1.274       .  A
O28          C33   1.262       .  A
O29          C32   1.273       .  A
O30          C42   1.274       .  A
O31          C44   1.260       .  A
C32          O37   1.278       .  A
C32         C741   1.466       .  S
C33         C573   1.491       .  S
O35          C38   1.284       .  A
O36          C38   1.278       .  A
C38         C776   1.484       .  S
O39          C44   1.261       .  A
O40          C42   1.267       .  A
C41          O43   1.266       .  A
C41         C608   1.493       .  S
C42         C657   1.489       .  S
C44         C629   1.487       .  S
Fe45         O61   2.046       .  S
Fe45         O51   2.047       .  S
Fe45         O58   2.054       .  S
Fe45         O50   2.042       .  S
Fe45         O56   1.960       .  S
Fe46         O49   2.067       .  S
Fe46         O53   2.086       .  S
Fe46         O57   2.080       .  S
Fe46         O62   2.076       .  S
Fe46         O56   1.958       .  S
Fe47         O65   2.061       .  S
Fe47         O52   2.056       .  S
Fe47         O59   2.063       .  S
Fe47         O48   2.072       .  S
Fe47         O56   1.960       .  S
O48          C55   1.276       .  A
O49          C63   1.271       .  A
O50          C55   1.273       .  A
O51          C54   1.258       .  A
O52          C64   1.267       .  A
O53          C66   1.280       .  A
C54          O59   1.262       .  A
C54         C489   1.485       .  S
C55         C545   1.460       .  S
O57          C60   1.265       .  A
O58          C60   1.259       .  A
C60         C664   1.496       .  S
O61          C66   1.275       .  A
O62          C64   1.272       .  A
C63          O65   1.270       .  A
C63         C636   1.485       .  S
C64         C720   1.495       .  S
C66         C524   1.475       .  S
Fe67         O83   2.068       .  S
Fe67         O73   2.050       .  S
Fe67         O80   2.039       .  S
Fe67         O72   2.056       .  S
Fe67         O78   1.965       .  S
Fe68         O71   2.070       .  S
Fe68         O75   2.064       .  S
Fe68         O79   2.080       .  S
Fe68         O84   2.069       .  S
Fe68         O78   1.967       .  S
Fe69         O87   2.073       .  S
Fe69         O74   2.064       .  S
Fe69         O81   2.067       .  S
Fe69         O70   2.056       .  S
Fe69         O78   1.970       .  S
O70          C77   1.272       .  A
O71          C85   1.269       .  A
O72          C77   1.273       .  A
O73          C76   1.261       .  A
O74          C86   1.270       .  A
O75          C88   1.278       .  A
C76          O81   1.265       .  A
C76         C468   1.484       .  S
C77         C552   1.490       .  S
O79          C82   1.264       .  A
O80          C82   1.257       .  A
C82         C825   1.489       .  S
O83          C88   1.277       .  A
O84          C86   1.273       .  A
C85          O87   1.269       .  A
C85         C804   1.505       .  S
C86         C601   1.488       .  S
C88         C517   1.469       .  S
Fe89        O105   2.083       .  S
Fe89         O95   2.038       .  S
Fe89        O102   2.043       .  S
Fe89         O94   2.093       .  S
Fe89        O100   1.952       .  S
Fe90         O93   2.077       .  S
Fe90         O97   2.080       .  S
Fe90        O101   2.073       .  S
Fe90        O106   2.070       .  S
Fe90        O100   1.960       .  S
Fe91        O109   2.084       .  S
Fe91         O96   2.066       .  S
Fe91        O103   2.087       .  S
Fe91         O92   2.052       .  S
Fe91        O100   1.969       .  S
O92          C99   1.271       .  A
O93         C107   1.271       .  A
O94          C99   1.279       .  A
O95          C98   1.259       .  A
O96         C108   1.270       .  A
O97         C110   1.280       .  A
C98         O103   1.269       .  A
C98         C580   1.498       .  S
C99         C356   1.477       .  S
O101        C104   1.263       .  A
O102        C104   1.258       .  A
C104        C405   1.495       .  S
O105        C110   1.281       .  A
O106        C108   1.270       .  A
C107        O109   1.275       .  A
C107        C440   1.494       .  S
C108        C328   1.497       .  S
C110        C377   1.503       .  S
Fe111       O127   2.108       .  S
Fe111       O117   2.051       .  S
Fe111       O124   2.052       .  S
Fe111       O116   2.104       .  S
Fe111       O122   1.940       .  S
Fe112       O115   2.085       .  S
Fe112       O119   2.050       .  S
Fe112       O123   2.092       .  S
Fe112       O128   2.071       .  S
Fe112       O122   1.950       .  S
Fe113       O131   2.077       .  S
Fe113       O118   2.083       .  S
Fe113       O125   2.107       .  S
Fe113       O114   2.044       .  S
Fe113       O122   1.954       .  S
O114        C121   1.268       .  A
O115        C129   1.275       .  A
O116        C121   1.279       .  A
O117        C120   1.264       .  A
O118        C130   1.273       .  A
O119        C132   1.273       .  A
C120        O125   1.274       .  A
C120        C692   1.502       .  S
C121        C349   1.514       .  S
O123        C126   1.269       .  A
O124        C126   1.263       .  A
C126        C265   1.507       .  S
O127        C132   1.282       .  A
O128        C130   1.272       .  A
C129        O131   1.276       .  A
C129        C293   1.496       .  S
C130        C237   1.491       .  S
C132        C384   1.488       .  S
Fe133       O149   2.041       .  S
Fe133       O139   2.075       .  S
Fe133       O146   2.060       .  S
Fe133       O138   2.036       .  S
Fe133       O144   1.958       .  S
Fe134       O137   2.065       .  S
Fe134       O141   2.079       .  S
Fe134       O145   2.050       .  S
Fe134       O150   2.075       .  S
Fe134       O144   1.962       .  S
Fe135       O153   2.078       .  S
Fe135       O140   2.064       .  S
Fe135       O147   2.038       .  S
Fe135       O136   2.083       .  S
Fe135       O144   1.965       .  S
O136        C143   1.267       .  A
O137        C151   1.270       .  A
O138        C143   1.258       .  A
O139        C142   1.277       .  A
O140        C152   1.272       .  A
O141        C154   1.266       .  A
C142        O147   1.271       .  A
C142        C216   1.478       .  S
C143        C496   1.489       .  S
O145        C148   1.271       .  A
O146        C148   1.273       .  A
C148        C181   1.460       .  S
O149        C154   1.260       .  A
O150        C152   1.272       .  A
C151        O153   1.270       .  A
C151        C244   1.493       .  S
C152        C412   1.481       .  S
C154        C433   1.488       .  S
Fe155       O171   2.037       .  S
Fe155       O161   2.059       .  S
Fe155       O168   2.047       .  S
Fe155       O160   2.032       .  S
Fe155       O166   1.968       .  S
Fe156       O159   2.063       .  S
Fe156       O163   2.093       .  S
Fe156       O167   2.066       .  S
Fe156       O172   2.078       .  S
Fe156       O166   1.973       .  S
Fe157       O175   2.066       .  S
Fe157       O162   2.072       .  S
Fe157       O169   2.054       .  S
Fe157       O158   2.093       .  S
Fe157       O166   1.976       .  S
O158        C165   1.269       .  A
O159        C173   1.269       .  A
O160        C165   1.259       .  A
O161        C164   1.273       .  A
O162        C174   1.271       .  A
O163        C176   1.268       .  A
C164        O169   1.271       .  A
C164        C209   1.471       .  S
C165        C461   1.496       .  S
O167        C170   1.275       .  A
O168        C170   1.271       .  A
C170        C188   1.459       .  S
O171        C176   1.257       .  A
O172        C174   1.272       .  A
C173        O175   1.270       .  A
C173        C321   1.474       .  S
C174        C272   1.495       .  S
C176        C300   1.509       .  S
C177        C178   1.411       .  A
C177        C182   1.404       .  A
C177        C195   1.451       .  S
C178        C183   1.479       .  S
C178        C179   1.408       .  A
C179        C180   1.403       .  A
C179        C184   1.451       .  S
C180        C181   1.411       .  A
C180        C196   1.452       .  S
C181        C182   1.407       .  A
C182        C185   1.451       .  S
C183        C186   1.410       .  A
C183        C190   1.410       .  A
C184        N201   1.157       .  T
C185        N203   1.157   1_545  T
C186        C187   1.403       .  A
C186        C191   1.451       .  S
C187        C188   1.408       .  A
C187        C193   1.451       .  S
C188        C189   1.409       .  A
C189        C190   1.404       .  A
C189        C192   1.452       .  S
C190        C194   1.451       .  S
C191        N198   1.157       .  T
C192        N199   1.157       .  T
C193        N197   1.157       .  T
C194        N200   1.157       .  T
C195        N204   1.157       .  T
C196        N202   1.157       .  T
C205        C206   1.410       .  A
C205        C210   1.405       .  A
C205        C223   1.452       .  S
C206        C211   1.482   1_556  S
C206        C207   1.408       .  A
C207        C208   1.404       .  A
C207        C212   1.452       .  S
C208        C209   1.414       .  A
C208        C224   1.453       .  S
C209        C210   1.412       .  A
C210        C213   1.450       .  S
C211        C214   1.410       .  A
C211        C218   1.406       .  A
C212        N229   1.157   1_556  T
C213        N231   1.157       .  T
C214        C215   1.406       .  A
C214        C219   1.452       .  S
C215        C216   1.415       .  A
C215        C221   1.452       .  S
C216        C217   1.418       .  A
C217        C218   1.403       .  A
C217        C220   1.453       .  S
C218        C222   1.452   1_554  S
C219        N226   1.157       .  T
C220        N227   1.157       .  T
C221        N225   1.157       .  T
C222        N228   1.157       .  T
C223        N232   1.157       .  T
C224        N230   1.157       .  T
C233        C234   1.408   1_455  A
C233        C238   1.409   1_455  A
C233        C251   1.452       .  S
C234        C239   1.496   1_666  S
C234        C235   1.411       .  A
C235        C236   1.414       .  A
C235        C240   1.450   1_565  S
C236        C237   1.417       .  A
C236        C252   1.451       .  S
C237        C238   1.416       .  A
C238        C241   1.449   1_655  S
C239        C242   1.407       .  A
C239        C246   1.411   1_545  A
C240        N257   1.157   1_556  T
C241        N259   1.156       .  T
C242        C243   1.408       .  A
C242        C247   1.453   1_554  S
C243        C244   1.419       .  A
C243        C249   1.449       .  S
C244        C245   1.418       .  A
C245        C246   1.414   1_545  A
C245        C248   1.451   1_545  S
C246        C250   1.450       .  S
C247        N254   1.157       .  T
C248        N255   1.157       .  T
C249        N253   1.156       .  T
C250        N256   1.157   1_455  T
C251        N260   1.157       .  T
C252        N258   1.158       .  T
C261        C262   1.412   1_565  A
C261        C266   1.409       .  A
C261        C279   1.453       .  S
C262        C267   1.509       .  S
C262        C263   1.414       .  A
C263        C264   1.420       .  A
C263        C268   1.450       .  S
C264        C265   1.421   1_545  A
C264        C280   1.450       .  S
C265        C266   1.423       .  A
C266        C269   1.454       .  S
C267        C270   1.413       .  A
C267        C274   1.414       .  A
C268        N285   1.157       .  T
C269        N287   1.158       .  T
C270        C271   1.416       .  A
C270        C275   1.451       .  S
C271        C272   1.420       .  A
C271        C277   1.452       .  S
C272        C273   1.413       .  A
C273        C274   1.414       .  A
C273        C276   1.449       .  S
C274        C278   1.451       .  S
C275        N282   1.157       .  T
C276        N283   1.157       .  T
C277        N281   1.157       .  T
C278        N284   1.157       .  T
C279        N288   1.157       .  T
C280        N286   1.158       .  T
C289        C290   1.412       .  A
C289        C294   1.417       .  A
C289        C307   1.449       .  S
C290        C295   1.505       .  S
C290        C291   1.412       .  A
C291        C292   1.412   1_455  A
C291        C296   1.451       .  S
C292        C293   1.416       .  A
C292        C308   1.451       .  S
C293        C294   1.416   1_655  A
C294        C297   1.450       .  S
C295        C298   1.411       .  A
C295        C302   1.409       .  A
C296        N313   1.157       .  T
C297        N315   1.157       .  T
C298        C299   1.420       .  A
C298        C303   1.449       .  S
C299        C300   1.422   1_565  A
C299        C305   1.450       .  S
C300        C301   1.426       .  A
C301        C302   1.410   1_545  A
C301        C304   1.453       .  S
C302        C306   1.454       .  S
C303        N310   1.157       .  T
C304        N311   1.158       .  T
C305        N309   1.157       .  T
C306        N312   1.157   1_565  T
C307        N316   1.157       .  T
C308        N314   1.157       .  T
C317        C318   1.413   1_545  A
C317        C322   1.408       .  A
C317        C335   1.451   1_556  S
C318        C323   1.493   1_556  S
C318        C319   1.411       .  A
C319        C320   1.407   1_565  A
C319        C324   1.451       .  S
C320        C321   1.410       .  A
C320        C336   1.448       .  S
C321        C322   1.408       .  A
C322        C325   1.447       .  S
C323        C326   1.407       .  A
C323        C330   1.411   1_565  A
C324        N341   1.157       .  T
C325        N343   1.156       .  T
C326        C327   1.406       .  A
C326        C331   1.452   1_554  S
C327        C328   1.421       .  A
C327        C333   1.452       .  S
C328        C329   1.420       .  A
C329        C330   1.412   1_565  A
C329        C332   1.450   1_565  S
C330        C334   1.451       .  S
C331        N338   1.157       .  T
C332        N339   1.157       .  T
C333        N337   1.157       .  T
C334        N340   1.157       .  T
C335        N344   1.157       .  T
C336        N342   1.156       .  T
C345        C346   1.408       .  A
C345        C350   1.414       .  A
C345        C363   1.452       .  S
C346        C351   1.497   1_556  S
C346        C347   1.404       .  A
C347        C348   1.411       .  A
C347        C352   1.453   1_556  S
C348        C349   1.432       .  A
C348        C364   1.453       .  S
C349        C350   1.426       .  A
C350        C353   1.451       .  S
C351        C354   1.412       .  A
C351        C358   1.411       .  A
C352        N369   1.157       .  T
C353        N371   1.158       .  T
C354        C355   1.413       .  A
C354        C359   1.449       .  S
C355        C356   1.411       .  A
C355        C361   1.450       .  S
C356        C357   1.413       .  A
C357        C358   1.408       .  A
C357        C360   1.452       .  S
C358        C362   1.452       .  S
C359        N366   1.157       .  T
C360        N367   1.157       .  T
C361        N365   1.157       .  T
C362        N368   1.157       .  T
C363        N372   1.157       .  T
C364        N370   1.158       .  T
C373        C374   1.410       .  A
C373        C378   1.412       .  A
C373        C391   1.452       .  S
C374        C379   1.501       .  S
C374        C375   1.409       .  A
C375        C376   1.415       .  A
C375        C380   1.451       .  S
C376        C377   1.423       .  A
C376        C392   1.451       .  S
C377        C378   1.420       .  A
C378        C381   1.452       .  S
C379        C382   1.410       .  A
C379        C386   1.413       .  A
C380        N397   1.157       .  T
C381        N399   1.157       .  T
C382        C383   1.411       .  A
C382        C387   1.450       .  S
C383        C384   1.415       .  A
C383        C389   1.451       .  S
C384        C385   1.413       .  A
C385        C386   1.414       .  A
C385        C388   1.450       .  S
C386        C390   1.450       .  S
C387        N394   1.157   1_565  T
C388        N395   1.157       .  T
C389        N393   1.157   1_565  T
C390        N396   1.157       .  T
C391        N400   1.157       .  T
C392        N398   1.157       .  T
C401        C402   1.411       .  A
C401        C406   1.409   1_545  A
C401        C419   1.454       .  S
C402        C407   1.499       .  S
C402        C403   1.410       .  A
C403        C404   1.415       .  A
C403        C408   1.450       .  S
C404        C405   1.419   1_545  A
C404        C420   1.451       .  S
C405        C406   1.419       .  A
C406        C409   1.452       .  S
C407        C410   1.412       .  A
C407        C414   1.412       .  A
C408        N425   1.157       .  T
C409        N427   1.157       .  T
C410        C411   1.411       .  A
C410        C415   1.451       .  S
C411        C412   1.413   1_655  A
C411        C417   1.451       .  S
C412        C413   1.412       .  A
C413        C414   1.411   1_455  A
C413        C416   1.451       .  S
C414        C418   1.450       .  S
C415        N422   1.157       .  T
C416        N423   1.157       .  T
C417        N421   1.157       .  T
C418        N424   1.157       .  T
C419        N428   1.157   1_545  T
C420        N426   1.157       .  T
C429        C430   1.412       .  A
C429        C434   1.409   1_565  A
C429        C447   1.452       .  S
C430        C435   1.503       .  S
C430        C431   1.416       .  A
C431        C432   1.415       .  A
C431        C436   1.450       .  S
C432        C433   1.412   1_565  A
C432        C448   1.450       .  S
C433        C434   1.416       .  A
C434        C437   1.453       .  S
C435        C438   1.416       .  A
C435        C442   1.408       .  A
C436        N453   1.157       .  T
C437        N455   1.157       .  T
C438        C439   1.420       .  A
C438        C443   1.448       .  S
C439        C440   1.413       .  A
C439        C445   1.448       .  S
C440        C441   1.417       .  A
C441        C442   1.406       .  A
C441        C444   1.446       .  S
C442        C446   1.455       .  S
C443        N450   1.157       .  T
C444        N451   1.155       .  T
C445        N449   1.157       .  T
C446        N452   1.157   1_565  T
C447        N456   1.157       .  T
C448        N454   1.157       .  T
C457        C458   1.415       .  A
C457        C462   1.419       .  A
C457        C475   1.449       .  S
C458        C463   1.500       .  S
C458        C459   1.406       .  A
C459        C460   1.406       .  A
C459        C464   1.453       .  S
C460        C461   1.423       .  A
C460        C476   1.453       .  S
C461        C462   1.414       .  A
C462        C465   1.449       .  S
C463        C466   1.411       .  A
C463        C470   1.414       .  A
C464        N481   1.157       .  T
C465        N483   1.157       .  T
C466        C467   1.412       .  A
C466        C471   1.450       .  S
C467        C468   1.416       .  A
C467        C473   1.452       .  S
C468        C469   1.410       .  A
C469        C470   1.412       .  A
C469        C472   1.451       .  S
C470        C474   1.450       .  S
C471        N478   1.157       .  T
C472        N479   1.157       .  T
C473        N477   1.157       .  T
C474        N480   1.157       .  T
C475        N484   1.157       .  T
C476        N482   1.157       .  T
C485        C486   1.410       .  A
C485        C490   1.410       .  A
C485        C503   1.451       .  S
C486        C491   1.495       .  S
C486        C487   1.410       .  A
C487        C488   1.410       .  A
C487        C492   1.451       .  S
C488        C489   1.417       .  A
C488        C504   1.452       .  S
C489        C490   1.415       .  A
C490        C493   1.451       .  S
C491        C494   1.405       .  A
C491        C498   1.414       .  A
C492        N509   1.157       .  T
C493        N511   1.157       .  T
C494        C495   1.406       .  A
C494        C499   1.453       .  S
C495        C496   1.422       .  A
C495        C501   1.453       .  S
C496        C497   1.412       .  A
C497        C498   1.416       .  A
C497        C500   1.449       .  S
C498        C502   1.449       .  S
C499        N506   1.157       .  T
C500        N507   1.157       .  T
C501        N505   1.157       .  T
C502        N508   1.157       .  T
C503        N512   1.157       .  T
C504        N510   1.157       .  T
C513        C514   1.410       .  A
C513        C518   1.408       .  A
C513        C531   1.450       .  S
C514        C519   1.484   1_556  S
C514        C515   1.409       .  A
C515        C516   1.403       .  A
C515        C520   1.451       .  S
C516        C517   1.411       .  A
C516        C532   1.451       .  S
C517        C518   1.411       .  A
C518        C521   1.451       .  S
C519        C522   1.410       .  A
C519        C526   1.407       .  A
C520        N537   1.157       .  T
C521        N539   1.157       .  T
C522        C523   1.406       .  A
C522        C527   1.451       .  S
C523        C524   1.412       .  A
C523        C529   1.450       .  S
C524        C525   1.415       .  A
C525        C526   1.406       .  A
C525        C528   1.452       .  S
C526        C530   1.451       .  S
C527        N534   1.157   1_554  T
C528        N535   1.157       .  T
C529        N533   1.157       .  T
C530        N536   1.157       .  T
C531        N540   1.157   1_556  T
C532        N538   1.157       .  T
C541        C542   1.407       .  A
C541        C546   1.401       .  A
C541        C559   1.452       .  S
C542        C547   1.478       .  S
C542        C543   1.409       .  A
C543        C544   1.404       .  A
C543        C548   1.451       .  S
C544        C545   1.408       .  A
C544        C560   1.450       .  S
C545        C546   1.412       .  A
C546        C549   1.452       .  S
C547        C550   1.403       .  A
C547        C554   1.405       .  A
C548        N565   1.157       .  T
C549        N567   1.157       .  T
C550        C551   1.403       .  A
C550        C555   1.454       .  S
C551        C552   1.426       .  A
C551        C557   1.453       .  S
C552        C553   1.422       .  A
C553        C554   1.406       .  A
C553        C556   1.452       .  S
C554        C558   1.452       .  S
C555        N562   1.157       .  T
C556        N563   1.157       .  T
C557        N561   1.157       .  T
C558        N564   1.157       .  T
C559        N568   1.157       .  T
C560        N566   1.157       .  T
C569        C570   1.414       .  A
C569        C574   1.414       .  A
C569        C587   1.451       .  S
C570        C575   1.506       .  S
C570        C571   1.413       .  A
C571        C572   1.413       .  A
C571        C576   1.451       .  S
C572        C573   1.415       .  A
C572        C588   1.451       .  S
C573        C574   1.417       .  A
C574        C577   1.452       .  S
C575        C578   1.409       .  A
C575        C582   1.417       .  A
C576        N593   1.157       .  T
C577        N595   1.157       .  T
C578        C579   1.409       .  A
C578        C583   1.453       .  S
C579        C580   1.424       .  A
C579        C585   1.454       .  S
C580        C581   1.413       .  A
C581        C582   1.418       .  A
C581        C584   1.450       .  S
C582        C586   1.450       .  S
C583        N590   1.157       .  T
C584        N591   1.157       .  T
C585        N589   1.158       .  T
C586        N592   1.157       .  T
C587        N596   1.157       .  T
C588        N594   1.157       .  T
C597        C598   1.411       .  A
C597        C602   1.412       .  A
C597        C615   1.450       .  S
C598        C603   1.490   1_455  S
C598        C599   1.404   1_455  A
C599        C600   1.405   1_655  A
C599        C604   1.453       .  S
C600        C601   1.419       .  A
C600        C616   1.447   1_455  S
C601        C602   1.415       .  A
C602        C605   1.451       .  S
C603        C606   1.409       .  A
C603        C610   1.405       .  A
C604        N621   1.157       .  T
C605        N623   1.157       .  T
C606        C607   1.410       .  A
C606        C611   1.451   1_655  S
C607        C608   1.418       .  A
C607        C613   1.451       .  S
C608        C609   1.424       .  A
C609        C610   1.408       .  A
C609        C612   1.452       .  S
C610        C614   1.452       .  S
C611        N618   1.157       .  T
C612        N619   1.157       .  T
C613        N617   1.157       .  T
C614        N620   1.157       .  T
C615        N624   1.157       .  T
C616        N622   1.155       .  T
C625        C626   1.409       .  A
C625        C630   1.415       .  A
C625        C643   1.449       .  S
C626        C631   1.494       .  S
C626        C627   1.410       .  A
C627        C628   1.406       .  A
C627        C632   1.453       .  S
C628        C629   1.415       .  A
C628        C644   1.451       .  S
C629        C630   1.417       .  A
C630        C633   1.449       .  S
C631        C634   1.409       .  A
C631        C638   1.410       .  A
C632        N649   1.157       .  T
C633        N651   1.157       .  T
C634        C635   1.409       .  A
C634        C639   1.451       .  S
C635        C636   1.418       .  A
C635        C641   1.452       .  S
C636        C637   1.414       .  A
C637        C638   1.410       .  A
C637        C640   1.451       .  S
C638        C642   1.450       .  S
C639        N646   1.157       .  T
C640        N647   1.157       .  T
C641        N645   1.158       .  T
C642        N648   1.157       .  T
C643        N652   1.157       .  T
C644        N650   1.157       .  T
C653        C654   1.410       .  A
C653        C658   1.412       .  A
C653        C671   1.451       .  S
C654        C659   1.500       .  S
C654        C655   1.412       .  A
C655        C656   1.413   1_455  A
C655        C660   1.450       .  S
C656        C657   1.415       .  A
C656        C672   1.452       .  S
C657        C658   1.417   1_655  A
C658        C661   1.452       .  S
C659        C662   1.409       .  A
C659        C666   1.410       .  A
C660        N677   1.157       .  T
C661        N679   1.157       .  T
C662        C663   1.409       .  A
C662        C667   1.453       .  S
C663        C664   1.420       .  A
C663        C669   1.452       .  S
C664        C665   1.417       .  A
C665        C666   1.417       .  A
C665        C668   1.449       .  S
C666        C670   1.449       .  S
C667        N674   1.157       .  T
C668        N675   1.157       .  T
C669        N673   1.157       .  T
C670        N676   1.157       .  T
C671        N680   1.157       .  T
C672        N678   1.158       .  T
C681        C682   1.412       .  A
C681        C686   1.413       .  A
C681        C699   1.451       .  S
C682        C687   1.508       .  S
C682        C683   1.414       .  A
C683        C684   1.418       .  A
C683        C688   1.449       .  S
C684        C685   1.415       .  A
C684        C700   1.451       .  S
C685        C686   1.417       .  A
C686        C689   1.452       .  S
C687        C690   1.408       .  A
C687        C694   1.415       .  A
C688        N705   1.157       .  T
C689        N707   1.157       .  T
C690        C691   1.412       .  A
C690        C695   1.452       .  S
C691        C692   1.422       .  A
C691        C697   1.452       .  S
C692        C693   1.414       .  A
C693        C694   1.420       .  A
C693        C696   1.449       .  S
C694        C698   1.449       .  S
C695        N702   1.157       .  T
C696        N703   1.157       .  T
C697        N701   1.157       .  T
C698        N704   1.157       .  T
C699        N708   1.157       .  T
C700        N706   1.158       .  T
C709        C710   1.406       .  A
C709        C714   1.408       .  A
C709        C727   1.452       .  S
C710        C715   1.495       .  S
C710        C711   1.411       .  A
C711        C712   1.414       .  A
C711        C716   1.450       .  S
C712        C713   1.416       .  A
C712        C728   1.451       .  S
C713        C714   1.418       .  A
C714        C717   1.449       .  S
C715        C718   1.410       .  A
C715        C722   1.407       .  A
C716        N733   1.157       .  T
C717        N735   1.156       .  T
C718        C719   1.413       .  A
C718        C723   1.450       .  S
C719        C720   1.419       .  A
C719        C725   1.451       .  S
C720        C721   1.421       .  A
C721        C722   1.409       .  A
C721        C724   1.451       .  S
C722        C726   1.452       .  S
C723        N730   1.157       .  T
C724        N731   1.157       .  T
C725        N729   1.157       .  T
C726        N732   1.157       .  T
C727        N736   1.157       .  T
C728        N734   1.157       .  T
C737        C738   1.409       .  A
C737        C742   1.406       .  A
C737        C755   1.450       .  S
C738        C743   1.482       .  S
C738        C739   1.409       .  A
C739        C740   1.403       .  A
C739        C744   1.452       .  S
C740        C741   1.412       .  A
C740        C756   1.453       .  S
C741        C742   1.409       .  A
C742        C745   1.449       .  S
C743        C746   1.404       .  A
C743        C750   1.407       .  A
C744        N761   1.157       .  T
C745        N763   1.157       .  T
C746        C747   1.404       .  A
C746        C751   1.453       .  S
C747        C748   1.424       .  A
C747        C753   1.453       .  S
C748        C749   1.419       .  A
C749        C750   1.407       .  A
C749        C752   1.451       .  S
C750        C754   1.451       .  S
C751        N758   1.157       .  T
C752        N759   1.157       .  T
C753        N757   1.157       .  T
C754        N760   1.157       .  T
C755        N764   1.157       .  T
C756        N762   1.157       .  T
C765        C766   1.410       .  A
C765        C770   1.406       .  A
C765        C783   1.451       .  S
C766        C771   1.493   1_556  S
C766        C767   1.413       .  A
C767        C768   1.411       .  A
C767        C772   1.450       .  S
C768        C769   1.409       .  A
C768        C784   1.450       .  S
C769        C770   1.412       .  A
C770        C773   1.451       .  S
C771        C774   1.411       .  A
C771        C778   1.410       .  A
C772        N789   1.157   1_556  T
C773        N791   1.157       .  T
C774        C775   1.409       .  A
C774        C779   1.451       .  S
C775        C776   1.413       .  A
C775        C781   1.450       .  S
C776        C777   1.416       .  A
C777        C778   1.410       .  A
C777        C780   1.452       .  S
C778        C782   1.451       .  S
C779        N786   1.157   1_554  T
C780        N787   1.157       .  T
C781        N785   1.157       .  T
C782        N788   1.157       .  T
C783        N792   1.157       .  T
C784        N790   1.157       .  T
C793        C794   1.410       .  A
C793        C798   1.416       .  A
C793        C811   1.450       .  S
C794        C799   1.503       .  S
C794        C795   1.412       .  A
C795        C796   1.412       .  A
C795        C800   1.451       .  S
C796        C797   1.416       .  A
C796        C812   1.452       .  S
C797        C798   1.418       .  A
C798        C801   1.450       .  S
C799        C802   1.410       .  A
C799        C806   1.409       .  A
C800        N817   1.157       .  T
C801        N819   1.157       .  T
C802        C803   1.417       .  A
C802        C807   1.449       .  S
C803        C804   1.421   1_655  A
C803        C809   1.450       .  S
C804        C805   1.419       .  A
C805        C806   1.411   1_455  A
C805        C808   1.451       .  S
C806        C810   1.451       .  S
C807        N814   1.157       .  T
C808        N815   1.157       .  T
C809        N813   1.158   1_655  T
C810        N816   1.157       .  T
C811        N820   1.157       .  T
C812        N818   1.158       .  T
C821        C822   1.412       .  A
C821        C826   1.415       .  A
C821        C839   1.450       .  S
C822        C827   1.502       .  S
C822        C823   1.413       .  A
C823        C824   1.411       .  A
C823        C828   1.451       .  S
C824        C825   1.414       .  A
C824        C840   1.452       .  S
C825        C826   1.415       .  A
C826        C829   1.450       .  S
C827        C830   1.411       .  A
C827        C834   1.411       .  A
C828        N845   1.157       .  T
C829        N847   1.157       .  T
C830        C831   1.411       .  A
C830        C835   1.451       .  S
C831        C832   1.417       .  A
C831        C837   1.452       .  S
C832        C833   1.418       .  A
C833        C834   1.415       .  A
C833        C836   1.450       .  S
C834        C838   1.450       .  S
C835        N842   1.157       .  T
C836        N843   1.158       .  T
C837        N841   1.157       .  T
C838        N844   1.157       .  T
C839        N848   1.157       .  T
C840        N846   1.157       .  T
