geometry optimzed in LAMMPS
_audit_creation_date              2020-12-01 
_audit_creation_method            'lammps2cif' 
_symmetry_space_group_name_H-M    'P1' 
_symmetry_Int_Tables_number       1 
_symmetry_cell_setting            triclinic 
loop_ 
_symmetry_equiv_pos_as_xyz 
  x,y,z 
_cell_length_a                    28.91941042 
_cell_length_b                    32.90038345009545 
_cell_length_c                    37.35846065336165 
_cell_angle_alpha                 89.99999167994872 
_cell_angle_beta                  97.58930252060688 
_cell_angle_gamma                 90.00013801330108 
loop_ 
_atom_site_label 
_atom_site_type_symbol 
_atom_site_fract_x 
_atom_site_fract_y 
_atom_site_fract_z 
_atom_site_charge 
O1          O  0.46009675  0.47299410  0.36930109    -0.80100
C2          C  0.41009995  0.36389633  0.46689941     0.99300
O3          O  0.38422355  0.39451063  0.45750607    -0.69200
O4          O  0.43574766  0.45810080  0.45662612    -0.72800
Al5        Al  0.39140424  0.43604144  0.42169709     1.49000
C6          C  0.47888106  0.46334059  0.45960211     0.94500
O7          O  0.52470685  0.38173654  0.40972923    -0.79000
O8          O  0.40910796  0.36326875  0.34317858    -0.72600
Al9        Al  0.48543108  0.42520951  0.38989854     1.90100
O10         O  0.47968376  0.33247320  0.38919811    -0.71600
O11         O  0.35323579  0.35446349  0.39485928    -0.71500
O12         O  0.42965904  0.34352445  0.44415442    -0.77100
O13         O  0.33812095  0.41888100  0.38928416    -0.75300
O14         O  0.43217238  0.40563704  0.40160602    -1.11500
O15         O  0.39466263  0.48341141  0.39149679    -0.70700
C16         C  0.42616365  0.49517877  0.37345365     1.00100
C17         C  0.51946007  0.34521457  0.40110587     0.96400
Al18       Al  0.41906160  0.35316463  0.39353524     1.55600
O19         O  0.50294519  0.45177694  0.43554388    -0.75300
C20         C  0.32426588  0.38266896  0.38850756     1.00600
C21         C  0.43711278  0.38251835  0.32575486     0.95500
O22         O  0.47257284  0.40175403  0.34154622    -0.80600
O23         O  0.53719170  0.08298524  0.16913530    -0.80100
C24         C  0.60061801  0.12078366  0.04431633     0.99300
O25         O  0.58096392  0.14129888  0.06693318    -0.69200
O26         O  0.53058461  0.15258064  0.12173407    -0.72800
Al27       Al  0.59118471  0.13176303  0.11755612     1.49000
C28         C  0.49085414  0.13997724  0.10957581     0.94500
O29         O  0.50749994  0.03373235  0.07470860    -0.79000
O30         O  0.61601082  0.50179830  0.12049448    -0.72600
Al31       Al  0.52457518  0.05985076  0.12059892     1.90100
O32         O  0.57534812  0.02620959  0.05487905    -0.71600
O33         O  0.67230355  0.06634289  0.12236875    -0.71500
O34         O  0.62639978  0.09012438  0.05383475    -0.77100
O35         O  0.65703417  0.13065809  0.11643781    -0.75300
O36         O  0.57813582  0.07930353  0.10944161    -1.11500
O37         O  0.60072618  0.12157168  0.16789432    -0.70700
C38         C  0.57257476  0.10220983  0.18512222     1.00100
C39         C  0.53208966  0.02157657  0.05119982     0.96400
Al40       Al  0.61926870  0.04881169  0.08986741     1.55600
O41         O  0.48560499  0.10352026  0.10077666    -0.75300
C42         C  0.68607511  0.10256122  0.12298740     1.00600
C43         C  0.58382632  0.48987248  0.13778738     0.95500
O44         O  0.54935442  0.01179671  0.14098601    -0.80600
O45         O  0.47328520  0.33298055  0.09189553    -0.80100
C46         C  0.40975451  0.37072928  0.21669684     0.99300
O47         O  0.42951480  0.39125173  0.19413763    -0.69200
O48         O  0.47991620  0.40258629  0.13930984    -0.72800
Al49       Al  0.41931764  0.38177973  0.14349320     1.49000
C50         C  0.51964666  0.38997270  0.15144536     0.94500
O51         O  0.50290616  0.28376282  0.18636089    -0.79000
O52         O  0.39439584  0.25184074  0.14036445    -0.72600
Al53       Al  0.48590177  0.30985867  0.14044441     1.90100
O54         O  0.43496216  0.27615488  0.20603241    -0.71600
O55         O  0.33816469  0.31643079  0.13848857    -0.71500
O56         O  0.38396586  0.34009126  0.20710697    -0.77100
O57         O  0.35346903  0.38072201  0.14460099    -0.75300
O58         O  0.43232809  0.32931349  0.15156202    -1.11500
O59         O  0.40977714  0.37160872  0.09315657    -0.70700
C60         C  0.43788211  0.35219766  0.07592093     1.00100
C61         C  0.47822828  0.27156516  0.20980117     0.96400
Al62       Al  0.39112244  0.29881861  0.17103580     1.55600
O63         O  0.52487949  0.35352258  0.16026579    -0.75300
C64         C  0.32441822  0.35265532  0.13792707     1.00600
C65         C  0.42665581  0.23989540  0.12315785     0.95500
O66         O  0.46117473  0.26179495  0.12006001    -0.80600
O67         O  0.54958573  0.22314039  0.39159792    -0.80100
C68         C  0.59989942  0.11410373  0.29415741     0.99300
O69         O  0.62565806  0.14478494  0.30358273    -0.69200
O70         O  0.57425205  0.20843004  0.30468498    -0.72800
Al71       Al  0.61855642  0.18618027  0.33952976     1.49000
C72         C  0.53106999  0.21341891  0.30152229     0.94500
O73         O  0.48515209  0.13169554  0.35145012    -0.79000
O74         O  0.60075412  0.11327076  0.41785355    -0.72600
Al75       Al  0.52441570  0.17523105  0.37114422     1.90100
O76         O  0.53027364  0.08244376  0.37180862    -0.71600
O77         O  0.65667558  0.10450315  0.36618946    -0.71500
O78         O  0.58032813  0.09366993  0.31686161    -0.77100
O79         O  0.67184259  0.16888863  0.37186787    -0.75300
O80         O  0.57772965  0.15570414  0.35949168    -1.11500
O81         O  0.61539191  0.23339881  0.36991323    -0.70700
C82         C  0.58369235  0.24523414  0.38772657     1.00100
C83         C  0.49045627  0.09517068  0.36002421     0.96400
Al84       Al  0.59085489  0.10322488  0.36749552     1.55600
O85         O  0.50688027  0.20161606  0.32542034    -0.75300
C86         C  0.68567298  0.13267705  0.37256154     1.00600
C87         C  0.57282664  0.13259268  0.43529786     0.95500
O88         O  0.53739149  0.15190034  0.41954113    -0.80600
O89         O  0.03696263  0.33316431  0.41894081    -0.80100
C90         C  0.10055651  0.37080979  0.29413777     0.99300
O91         O  0.08077639  0.39132779  0.31668431    -0.69200
O92         O  0.03035383  0.40266477  0.37148564    -0.72800
Al93       Al  0.09097101  0.38186204  0.36732798     1.49000
C94         C  0.99062799  0.39003533  0.35934146     0.94500
O95         O  0.00736935  0.28373854  0.32455761    -0.79000
O96         O  0.11571882  0.25184986  0.37032240    -0.72600
Al97       Al  0.02437917  0.30995039  0.37042855     1.90100
O98         O  0.07523202  0.27636106  0.30470508    -0.71600
O99         O  0.17203876  0.31641234  0.37235906    -0.71500
O100        O  0.12638067  0.34020513  0.30375007    -0.77100
O101        O  0.15682966  0.38073003  0.36624078    -0.75300
O102        O  0.07793435  0.32939561  0.35926653    -1.11500
O103        O  0.10051388  0.37171853  0.41766383    -0.70700
C104        C  0.07238902  0.35235032  0.43490775     1.00100
C105        C  0.03198477  0.27165688  0.30103279     0.96400
Al106      Al  0.11909843  0.29889414  0.33975222     1.55600
O107        O  0.98540862  0.35357973  0.35052939    -0.75300
C108        C  0.18583483  0.35262551  0.37293300     1.00600
C109        C  0.08355734  0.23997248  0.38765899     0.95500
O110        O  0.04915092  0.26194938  0.39091153    -0.80600
O111        O  0.96068666  0.22328491  0.11933887    -0.80100
C112        C  0.91037103  0.11418456  0.21665015     0.99300
O113        O  0.88462606  0.14488995  0.20725354    -0.69200
O114        O  0.93589843  0.20862382  0.20606915    -0.72800
Al115      Al  0.89161330  0.18627435  0.17125531     1.49000
C116        C  0.97910002  0.21351116  0.20931052     0.94500
O117        O  0.02502072  0.13175004  0.15934975    -0.79000
O118        O  0.90939558  0.11342413  0.09294358    -0.72600
Al119      Al  0.98578790  0.17532218  0.13970694     1.90100
O120        O  0.97989918  0.08254050  0.13891256    -0.71600
O121        O  0.85352701  0.10454870  0.14465302    -0.71500
O122        O  0.92991045  0.09375091  0.19392373    -0.77100
O123        O  0.83831187  0.16891533  0.13895683    -0.75300
O124        O  0.93245727  0.15580310  0.15131807    -1.11500
O125        O  0.89470666  0.23345359  0.14079397    -0.70700
C126        C  0.92650253  0.24533292  0.12309038     1.00100
C127        C  0.01971273  0.09524124  0.15073427     0.96400
Al128      Al  0.91933746  0.10332782  0.14329349     1.55600
O129        O  0.00333429  0.20160906  0.18547577    -0.75300
C130        C  0.82450444  0.13269952  0.13828170     1.00600
C131        C  0.93731241  0.13276795  0.07550247     0.95500
O132        O  0.97275739  0.15207107  0.09126477    -0.80600
O133        O  0.05019436  0.47300991  0.14163674    -0.80100
C134        C  0.10019273  0.36400132  0.04392859     0.99300
O135        O  0.12607043  0.39460534  0.05334075    -0.69200
O136        O  0.07445785  0.45813948  0.05419906    -0.72800
Al137      Al  0.11882935  0.43612583  0.08913510     1.49000
C138        C  0.03133439  0.46342826  0.05127406     0.94500
O139        O  0.98554699  0.38181470  0.10110341    -0.79000
O140        O  0.10114510  0.36328656  0.16764450    -0.72600
Al141      Al  0.02483154  0.42526217  0.12097916     1.90100
O142        O  0.03056812  0.33252279  0.12157888    -0.71600
O143        O  0.15704040  0.35456828  0.11598597    -0.71500
O144        O  0.08062927  0.34361592  0.06666000    -0.77100
O145        O  0.17212921  0.41899610  0.12155605    -0.75300
O146        O  0.07808299  0.40570213  0.10923789    -1.11500
O147        O  0.11552019  0.48350623  0.11930592    -0.70700
C148        C  0.08406473  0.49523655  0.13740765     1.00100
C149        C  0.99078873  0.34528060  0.10969059     0.96400
Al150      Al  0.09120588  0.35322653  0.11728217     1.55600
O151        O  0.00730776  0.45190290  0.07536891    -0.75300
C152        C  0.18599903  0.38278473  0.12234407     1.00600
C153        C  0.07313884  0.38251485  0.18507894     0.95500
O154        O  0.03767168  0.40174444  0.16930056    -0.80600
O155        O  0.97301081  0.08294314  0.34169802    -0.80100
C156        C  0.90953303  0.12082457  0.46648758     0.99300
O157        O  0.92916225  0.14133978  0.44385427    -0.69200
O158        O  0.97955900  0.15262009  0.38905264    -0.72800
Al159      Al  0.91897839  0.13176837  0.39323574     1.49000
C160        C  0.01929794  0.14004473  0.40121380     0.94500
O161        O  0.00271853  0.03386621  0.43620584    -0.79000
O162        O  0.89414910  0.50183239  0.39025616    -0.72600
Al163      Al  0.98564308  0.05988675  0.39027224     1.90100
O164        O  0.93481957  0.02616048  0.45591034    -0.71600
O165        O  0.83786611  0.06635455  0.38845644    -0.71500
O166        O  0.88381522  0.09011265  0.45699809    -0.77100
O167        O  0.85313961  0.13066611  0.39434814    -0.75300
O168        O  0.93205027  0.07931850  0.40138156    -1.11500
O169        O  0.90947153  0.12153985  0.34289898    -0.70700
C170        C  0.93764208  0.10217357  0.32568909     1.00100
C171        C  0.97809430  0.02162955  0.45966253     0.96400
Al172      Al  0.89091073  0.04881099  0.42093502     1.55600
O173        O  0.02457114  0.10360010  0.41004064    -0.75300
C174        C  0.82409784  0.10257079  0.38782704     1.00600
C175        C  0.92641042  0.48988533  0.37305003     0.95500
O176        O  0.96093852  0.01177983  0.36995694    -0.80600
C177        C  0.01066389  0.48373177  0.01945214    -0.11500
C178        C  0.99828357  0.00144666  0.49169864    -0.13100
C179        C  0.91871794  0.13038433  0.50429917    -0.11500
C180        C  0.92818915  0.13282296  0.03669365    -0.13100
C181        C  0.91959972  0.10450961  0.25444783    -0.11500
C182        C  0.92889959  0.10203910  0.28685832    -0.13100
C183        C  0.08062648  0.03664390  0.14918376    -0.11500
C184        C  0.05859391  0.06731670  0.15295392    -0.13100
C185        C  0.92985389  0.28670851  0.11119822    -0.11500
C186        C  0.95186917  0.31738805  0.10740280    -0.13100
C187        C  0.01183959  0.25144694  0.26900092    -0.11500
C188        C  0.99961074  0.23375022  0.24121367    -0.13100
C189        C  0.08015520  0.19867713  0.39972138    -0.11500
C190        C  0.05814076  0.16801092  0.40355129    -0.13100
C191        C  0.95174122  0.41795234  0.35703061    -0.11500
C192        C  0.92973617  0.44860787  0.36092048    -0.13100
C193        C  0.09147402  0.38023166  0.25629811    -0.11500
C194        C  0.08215927  0.38255625  0.22388757    -0.13100
C195        C  0.08129588  0.35210893  0.47372432    -0.11500
C196        C  0.09078575  0.35444050  0.00612466    -0.13100
C197        C  0.77515542  0.11252742  0.38184644    -0.11500
C198        C  0.73463840  0.12279608  0.37846063    -0.13100
C199        C  0.23497281  0.37293581  0.12834638    -0.11500
C200        C  0.27548843  0.36265090  0.13183676    -0.13100
C201        C  0.49832436  0.25136714  0.24184979    -0.11500
C202        C  0.51053509  0.23367025  0.26963823    -0.13100
C203        C  0.77554081  0.12279044  0.13238516    -0.11500
C204        C  0.73502205  0.11251751  0.12898591    -0.13100
C205        C  0.58136065  0.10205377  0.22394626    -0.11500
C206        C  0.59067762  0.10447411  0.25635580    -0.13100
C207        C  0.59139882  0.13027283  0.00649701    -0.11500
C208        C  0.58193518  0.13264973  0.47410118    -0.13100
C209        C  0.43000133  0.19860724  0.11105689    -0.11500
C210        C  0.45199628  0.16793156  0.10721856    -0.13100
C211        C  0.58050042  0.44858076  0.14988255    -0.11500
C212        C  0.55851697  0.41790769  0.15375342    -0.13100
C213        C  0.27529762  0.37281516  0.38252365    -0.11500
C214        C  0.23477480  0.36256272  0.37903788    -0.13100
C215        C  0.49951801  0.48363444  0.49143828    -0.11500
C216        C  0.51188334  0.00136067  0.01918716    -0.13100
C217        C  0.45156584  0.06725444  0.35782346    -0.11500
C218        C  0.42955496  0.03657805  0.36163663    -0.13100
C219        C  0.58034515  0.28661459  0.39960018    -0.11500
C220        C  0.55836294  0.31731160  0.40338876    -0.13100
C221        C  0.42810897  0.38255720  0.28694332    -0.11500
C222        C  0.41881362  0.38019596  0.25453127    -0.13100
C223        C  0.41950425  0.35430356  0.50469981    -0.11500
C224        C  0.42898405  0.35195146  0.03710127    -0.13100
O225        O  0.46009671  0.47299413  0.86930109    -0.80100
C226        C  0.41009992  0.36389641  0.96689928     0.99300
O227        O  0.38422355  0.39451066  0.95750610    -0.69200
O228        O  0.43574773  0.45810082  0.95662612    -0.72800
Al229      Al  0.39140427  0.43604147  0.92169708     1.49000
C230        C  0.47888108  0.46334059  0.95960206     0.94500
O231        O  0.52470685  0.38173658  0.90972921    -0.79000
O232        O  0.40910799  0.36326876  0.84317850    -0.72600
Al233      Al  0.48543110  0.42520952  0.88989852     1.90100
O234        O  0.47968375  0.33247321  0.88919816    -0.71600
O235        O  0.35323587  0.35446354  0.89485924    -0.71500
O236        O  0.42965901  0.34352449  0.94415447    -0.77100
O237        O  0.33812101  0.41888108  0.88928417    -0.75300
O238        O  0.43217240  0.40563705  0.90160601    -1.11500
O239        O  0.39466261  0.48341145  0.89149681    -0.70700
C240        C  0.42616378  0.49517880  0.87345359     1.00100
C241        C  0.51946016  0.34521450  0.90110590     0.96400
Al242      Al  0.41906161  0.35316465  0.89353524     1.55600
O243        O  0.50294524  0.45177695  0.93554385    -0.75300
C244        C  0.32426561  0.38266897  0.88850751     1.00600
C245        C  0.43711289  0.38251838  0.82575512     0.95500
O246        O  0.47257281  0.40175401  0.84154611    -0.80600
O247        O  0.53719173  0.08298524  0.66913531    -0.80100
C248        C  0.60061802  0.12078365  0.54431611     0.99300
O249        O  0.58096390  0.14129889  0.56693326    -0.69200
O250        O  0.53058460  0.15258051  0.62173403    -0.72800
Al251      Al  0.59118473  0.13176301  0.61755612     1.49000
C252        C  0.49085409  0.13997754  0.60957587     0.94500
O253        O  0.50749993  0.03373230  0.57470867    -0.79000
O254        O  0.61601082  0.50179828  0.62049438    -0.72600
Al255      Al  0.52457520  0.05985073  0.62059897     1.90100
O256        O  0.57534808  0.02620957  0.55487908    -0.71600
O257        O  0.67230357  0.06634286  0.62236869    -0.71500
O258        O  0.62639973  0.09012435  0.55383478    -0.77100
O259        O  0.65703419  0.13065807  0.61643781    -0.75300
O260        O  0.57813584  0.07930351  0.60944162    -1.11500
O261        O  0.60072621  0.12157169  0.66789432    -0.70700
C262        C  0.57257476  0.10220983  0.68512227     1.00100
C263        C  0.53208963  0.02157652  0.55119982     0.96400
Al264      Al  0.61926869  0.04881167  0.58986740     1.55600
O265        O  0.48560497  0.10352007  0.60077665    -0.75300
C266        C  0.68607517  0.10256121  0.62298741     1.00600
C267        C  0.58382629  0.48987244  0.63778744     0.95500
O268        O  0.54935450  0.01179674  0.64098606    -0.80600
O269        O  0.47328513  0.33298049  0.59189559    -0.80100
C270        C  0.40975435  0.37072911  0.71669662     0.99300
O271        O  0.42951477  0.39125176  0.69413772    -0.69200
O272        O  0.47991622  0.40258631  0.63930992    -0.72800
Al273      Al  0.41931764  0.38177973  0.64349324     1.49000
C274        C  0.51964662  0.38997284  0.65144531     0.94500
O275        O  0.50290617  0.28376290  0.68636098    -0.79000
O276        O  0.39439576  0.25184081  0.64036442    -0.72600
Al277      Al  0.48590179  0.30985866  0.64044444     1.90100
O278        O  0.43496213  0.27615480  0.70603239    -0.71600
O279        O  0.33816469  0.31643069  0.63848857    -0.71500
O280        O  0.38396594  0.34009128  0.70710708    -0.77100
O281        O  0.35346898  0.38072193  0.64460096    -0.75300
O282        O  0.43232809  0.32931349  0.65156205    -1.11500
O283        O  0.40977714  0.37160878  0.59315666    -0.70700
C284        C  0.43788214  0.35219758  0.57592083     1.00100
C285        C  0.47822834  0.27156521  0.70980114     0.96400
Al286      Al  0.39112243  0.29881859  0.67103580     1.55600
O287        O  0.52487952  0.35352254  0.66026573    -0.75300
C288        C  0.32441824  0.35265553  0.63792710     1.00600
C289        C  0.42665587  0.23989517  0.62315778     0.95500
O290        O  0.46117480  0.26179493  0.62006016    -0.80600
O291        O  0.54958577  0.22314031  0.89159794    -0.80100
C292        C  0.59989936  0.11410361  0.79415738     0.99300
O293        O  0.62565814  0.14478490  0.80358274    -0.69200
O294        O  0.57425206  0.20842998  0.80468490    -0.72800
Al295      Al  0.61855642  0.18618023  0.83952972     1.49000
C296        C  0.53107003  0.21341887  0.80152228     0.94500
O297        O  0.48515215  0.13169556  0.85145006    -0.79000
O298        O  0.60075418  0.11327072  0.91785357    -0.72600
Al299      Al  0.52441572  0.17523104  0.87114419     1.90100
O300        O  0.53027369  0.08244377  0.87180863    -0.71600
O301        O  0.65667561  0.10450314  0.86618945    -0.71500
O302        O  0.58032813  0.09366993  0.81686159    -0.77100
O303        O  0.67184259  0.16888860  0.87186789    -0.75300
O304        O  0.57772966  0.15570411  0.85949165    -1.11500
O305        O  0.61539189  0.23339878  0.86991317    -0.70700
C306        C  0.58369235  0.24523418  0.88772658     1.00100
C307        C  0.49045614  0.09517064  0.86002413     0.96400
Al308      Al  0.59085488  0.10322485  0.86749550     1.55600
O309        O  0.50688031  0.20161610  0.82542031    -0.75300
C310        C  0.68567285  0.13267706  0.87256154     1.00600
C311        C  0.57282646  0.13259273  0.93529762     0.95500
O312        O  0.53739157  0.15190023  0.91954117    -0.80600
O313        O  0.03696267  0.33316432  0.91894080    -0.80100
C314        C  0.10055657  0.37080978  0.79413780     0.99300
O315        O  0.08077636  0.39132784  0.81668432    -0.69200
O316        O  0.03035382  0.40266475  0.87148567    -0.72800
Al317      Al  0.09097101  0.38186203  0.86732798     1.49000
C318        C  0.99062800  0.39003521  0.85934144     0.94500
O319        O  0.00736937  0.28373847  0.82455763    -0.79000
O320        O  0.11571875  0.25184977  0.87032232    -0.72600
Al321      Al  0.02437919  0.30995036  0.87042854     1.90100
O322        O  0.07523200  0.27636115  0.80470498    -0.71600
O323        O  0.17203869  0.31641224  0.87235900    -0.71500
O324        O  0.12638064  0.34020521  0.80375004    -0.77100
O325        O  0.15682960  0.38072997  0.86624076    -0.75300
O326        O  0.07793436  0.32939560  0.85926650    -1.11500
O327        O  0.10051393  0.37171849  0.91766379    -0.70700
C328        C  0.07238900  0.35235028  0.93490773     1.00100
C329        C  0.03198475  0.27165684  0.80103273     0.96400
Al330      Al  0.11909843  0.29889416  0.83975215     1.55600
O331        O  0.98540863  0.35357973  0.85052937    -0.75300
C332        C  0.18583506  0.35262566  0.87293299     1.00600
C333        C  0.08355748  0.23997267  0.88765880     0.95500
O334        O  0.04915098  0.26194932  0.89091155    -0.80600
O335        O  0.96068669  0.22328487  0.61933882    -0.80100
C336        C  0.91037113  0.11418444  0.71665019     0.99300
O337        O  0.88462601  0.14488991  0.70725344    -0.69200
O338        O  0.93589828  0.20862370  0.70606916    -0.72800
Al339      Al  0.89161331  0.18627430  0.67125528     1.49000
C340        C  0.97910026  0.21351110  0.70931046     0.94500
O341        O  0.02502069  0.13175006  0.65934975    -0.79000
O342        O  0.90939554  0.11342410  0.59294366    -0.72600
Al343      Al  0.98578791  0.17532216  0.63970691     1.90100
O344        O  0.97989916  0.08254052  0.63891247    -0.71600
O345        O  0.85352702  0.10454867  0.64465303    -0.71500
O346        O  0.92991047  0.09375090  0.69392365    -0.77100
O347        O  0.83831188  0.16891531  0.63895677    -0.75300
O348        O  0.93245727  0.15580308  0.65131803    -1.11500
O349        O  0.89470673  0.23345358  0.64079398    -0.70700
C350        C  0.92650250  0.24533292  0.62309037     1.00100
C351        C  0.01971281  0.09524110  0.65073420     0.96400
Al352      Al  0.91933747  0.10332780  0.64329344     1.55600
O353        O  0.00333416  0.20160907  0.68547577    -0.75300
C354        C  0.82450441  0.13269951  0.63828164     1.00600
C355        C  0.93731241  0.13276794  0.57550214     0.95500
O356        O  0.97275743  0.15207104  0.59126483    -0.80600
O357        O  0.05019446  0.47300988  0.64163671    -0.80100
C358        C  0.10019268  0.36400120  0.54392859     0.99300
O359        O  0.12607047  0.39460524  0.55334077    -0.69200
O360        O  0.07445787  0.45813938  0.55419904    -0.72800
Al361      Al  0.11882936  0.43612576  0.58913508     1.49000
C362        C  0.03133440  0.46342829  0.55127390     0.94500
O363        O  0.98554698  0.38181469  0.60110334    -0.79000
O364        O  0.10114511  0.36328655  0.66764452    -0.72600
Al365      Al  0.02483155  0.42526212  0.62097912     1.90100
O366        O  0.03056810  0.33252281  0.62157890    -0.71600
O367        O  0.15704040  0.35456821  0.61598598    -0.71500
O368        O  0.08062925  0.34361584  0.56665998    -0.77100
O369        O  0.17212918  0.41899604  0.62155606    -0.75300
O370        O  0.07808300  0.40570207  0.60923786    -1.11500
O371        O  0.11552026  0.48350619  0.61930582    -0.70700
C372        C  0.08406459  0.49523649  0.63740766     1.00100
C373        C  0.99078879  0.34528049  0.60969064     0.96400
Al374      Al  0.09120588  0.35322647  0.61728217     1.55600
O375        O  0.00730778  0.45190285  0.57536894    -0.75300
C376        C  0.18599905  0.38278464  0.62234407     1.00600
C377        C  0.07313888  0.38251483  0.68507887     0.95500
O378        O  0.03767167  0.40174440  0.66930053    -0.80600
O379        O  0.97301084  0.08294314  0.84169803    -0.80100
C380        C  0.90953294  0.12082449  0.96648728     0.99300
O381        O  0.92916226  0.14133983  0.94385436    -0.69200
O382        O  0.97955900  0.15262017  0.88905257    -0.72800
Al383      Al  0.91897841  0.13176838  0.89323573     1.49000
C384        C  0.01929789  0.14004433  0.90121383     0.94500
O385        O  0.00271850  0.03386611  0.93620592    -0.79000
O386        O  0.89414915  0.50183235  0.89025611    -0.72600
Al387      Al  0.98564307  0.05988674  0.89027222     1.90100
O388        O  0.93481960  0.02616044  0.95591040    -0.71600
O389        O  0.83786611  0.06635462  0.88845645    -0.71500
O390        O  0.88381524  0.09011276  0.95699815    -0.77100
O391        O  0.85313958  0.13066618  0.89434811    -0.75300
O392        O  0.93205027  0.07931852  0.90138156    -1.11500
O393        O  0.90947154  0.12153987  0.84289900    -0.70700
C394        C  0.93764208  0.10217358  0.82568895     1.00100
C395        C  0.97809414  0.02162974  0.95966216     0.96400
Al396      Al  0.89091073  0.04881102  0.92093502     1.55600
O397        O  0.02457114  0.10360026  0.91004060    -0.75300
C398        C  0.82409794  0.10257074  0.88782706     1.00600
C399        C  0.92641019  0.48988531  0.87305011     0.95500
O400        O  0.96093853  0.01177983  0.86995688    -0.80600
C401        C  0.01066399  0.48373164  0.51945230    -0.11500
C402        C  0.99828375  0.00144635  0.99169907    -0.13100
C403        C  0.91871806  0.13038440  0.00429960    -0.11500
C404        C  0.92818926  0.13282292  0.53669407    -0.13100
C405        C  0.91959974  0.10450964  0.75444763    -0.11500
C406        C  0.92889967  0.10203912  0.78685845    -0.13100
C407        C  0.08062658  0.03664377  0.64918366    -0.11500
C408        C  0.05859380  0.06731686  0.65295386    -0.13100
C409        C  0.92985389  0.28670845  0.61119820    -0.11500
C410        C  0.95186920  0.31738805  0.60740283    -0.13100
C411        C  0.01183958  0.25144690  0.76900094    -0.11500
C412        C  0.99961066  0.23375013  0.74121362    -0.13100
C413        C  0.08015507  0.19867678  0.89972135    -0.11500
C414        C  0.05814101  0.16801121  0.90355117    -0.13100
C415        C  0.95174115  0.41795238  0.85703061    -0.11500
C416        C  0.92973623  0.44860775  0.86092046    -0.13100
C417        C  0.09147400  0.38023174  0.75629805    -0.11500
C418        C  0.08215931  0.38255630  0.72388762    -0.13100
C419        C  0.08129593  0.35210897  0.97372432    -0.11500
C420        C  0.09078573  0.35444046  0.50612466    -0.13100
C421        C  0.77515526  0.11252746  0.88184643    -0.11500
C422        C  0.73463854  0.12279604  0.87846065    -0.13100
C423        C  0.23497277  0.37293579  0.62834637    -0.11500
C424        C  0.27548846  0.36265084  0.63183677    -0.13100
C425        C  0.49832439  0.25136714  0.74184984    -0.11500
C426        C  0.51053509  0.23367028  0.76963815    -0.13100
C427        C  0.77554086  0.12279043  0.63238510    -0.11500
C428        C  0.73502201  0.11251747  0.62898591    -0.13100
C429        C  0.58136065  0.10205375  0.72394622    -0.11500
C430        C  0.59067766  0.10447409  0.75635584    -0.13100
C431        C  0.59139890  0.13027282  0.50649732    -0.11500
C432        C  0.58193527  0.13264968  0.97410146    -0.13100
C433        C  0.43000117  0.19860750  0.61105695    -0.11500
C434        C  0.45199649  0.16793125  0.60721856    -0.13100
C435        C  0.58050051  0.44858083  0.64988258    -0.11500
C436        C  0.55851693  0.41790764  0.65375347    -0.13100
C437        C  0.27529796  0.37281529  0.88252369    -0.11500
C438        C  0.23477445  0.36256263  0.87903782    -0.13100
C439        C  0.49951810  0.48363448  0.99143828    -0.11500
C440        C  0.51188330  0.00136065  0.51918724    -0.13100
C441        C  0.45156595  0.06725455  0.85782334    -0.11500
C442        C  0.42955488  0.03657796  0.86163658    -0.13100
C443        C  0.58034519  0.28661447  0.89960016    -0.11500
C444        C  0.55836288  0.31731168  0.90338881    -0.13100
C445        C  0.42810885  0.38255718  0.78694295    -0.11500
C446        C  0.41881367  0.38019603  0.75453164    -0.13100
C447        C  0.41950431  0.35430361  0.00469998    -0.11500
C448        C  0.42898404  0.35195140  0.53710147    -0.13100
O449        O  0.46009671  0.97299410  0.36930109    -0.80100
C450        C  0.41010005  0.86389619  0.46689939     0.99300
O451        O  0.38422348  0.89451066  0.45750607    -0.69200
O452        O  0.43574766  0.95810075  0.45662613    -0.72800
Al453      Al  0.39140424  0.93604140  0.42169710     1.49000
C454        C  0.47888105  0.96334055  0.45960209     0.94500
O455        O  0.52470685  0.88173646  0.40972921    -0.79000
O456        O  0.40910797  0.86326870  0.34317859    -0.72600
Al457      Al  0.48543107  0.92520950  0.38989854     1.90100
O458        O  0.47968377  0.83247312  0.38919814    -0.71600
O459        O  0.35323579  0.85446346  0.39485928    -0.71500
O460        O  0.42965900  0.84352448  0.44415447    -0.77100
O461        O  0.33812095  0.91888096  0.38928417    -0.75300
O462        O  0.43217237  0.90563701  0.40160602    -1.11500
O463        O  0.39466262  0.98341142  0.39149681    -0.70700
C464        C  0.42616367  0.99517872  0.37345367     1.00100
C465        C  0.51946006  0.84521473  0.40110591     0.96400
Al466      Al  0.41906161  0.85316460  0.39353525     1.55600
O467        O  0.50294518  0.95177694  0.43554388    -0.75300
C468        C  0.32426589  0.88266892  0.38850757     1.00600
C469        C  0.43711280  0.88251831  0.32575488     0.95500
O470        O  0.47257284  0.90175400  0.34154623    -0.80600
O471        O  0.53719171  0.58298519  0.16913530    -0.80100
C472        C  0.60061808  0.62078357  0.04431630     0.99300
O473        O  0.58096397  0.64129887  0.06693320    -0.69200
O474        O  0.53058461  0.65258054  0.12173404    -0.72800
Al475      Al  0.59118475  0.63176300  0.11755612     1.49000
C476        C  0.49085413  0.63997755  0.10957587     0.94500
O477        O  0.50749992  0.53373237  0.07470862    -0.79000
O478        O  0.61601077  0.00179831  0.12049449    -0.72600
Al479      Al  0.52457520  0.55985074  0.12059892     1.90100
O480        O  0.57534810  0.52620955  0.05487906    -0.71600
O481        O  0.67230357  0.56634284  0.12236876    -0.71500
O482        O  0.62639979  0.59012434  0.05383475    -0.77100
O483        O  0.65703420  0.63065804  0.11643781    -0.75300
O484        O  0.57813584  0.57930350  0.10944161    -1.11500
O485        O  0.60072618  0.62157164  0.16789432    -0.70700
C486        C  0.57257483  0.60220981  0.18512224     1.00100
C487        C  0.53208975  0.52157653  0.05119977     0.96400
Al488      Al  0.61926873  0.54881165  0.08986742     1.55600
O489        O  0.48560500  0.60352011  0.10077662    -0.75300
C490        C  0.68607514  0.60256117  0.12298741     1.00600
C491        C  0.58382637  0.98987260  0.13778732     0.95500
O492        O  0.54935443  0.51179668  0.14098598    -0.80600
O493        O  0.47328518  0.83298053  0.09189553    -0.80100
C494        C  0.40975460  0.87072929  0.21669683     0.99300
O495        O  0.42951484  0.89125169  0.19413766    -0.69200
O496        O  0.47991624  0.90258633  0.13930983    -0.72800
Al497      Al  0.41931766  0.88177971  0.14349321     1.49000
C498        C  0.51964657  0.88997260  0.15144533     0.94500
O499        O  0.50290616  0.78376282  0.18636089    -0.79000
O500        O  0.39439589  0.75184077  0.14036442    -0.72600
Al501      Al  0.48590179  0.80985865  0.14044439     1.90100
O502        O  0.43496214  0.77615483  0.20603238    -0.71600
O503        O  0.33816471  0.81643073  0.13848859    -0.71500
O504        O  0.38396591  0.84009121  0.20710698    -0.77100
O505        O  0.35346902  0.88072197  0.14460101    -0.75300
O506        O  0.43232811  0.82931347  0.15156202    -1.11500
O507        O  0.40977712  0.87160869  0.09315658    -0.70700
C508        C  0.43788210  0.85219763  0.07592092     1.00100
C509        C  0.47822846  0.77156512  0.20980118     0.96400
Al510      Al  0.39112247  0.79881859  0.17103580     1.55600
O511        O  0.52487952  0.85352263  0.16026575    -0.75300
C512        C  0.32441822  0.85265542  0.13792710     1.00600
C513        C  0.42665572  0.73989518  0.12315781     0.95500
O514        O  0.46117484  0.76179501  0.12006002    -0.80600
O515        O  0.54958573  0.72314038  0.39159794    -0.80100
C516        C  0.59989941  0.61410368  0.29415740     0.99300
O517        O  0.62565808  0.64478489  0.30358274    -0.69200
O518        O  0.57425205  0.70842999  0.30468497    -0.72800
Al519      Al  0.61855641  0.68618024  0.33952974     1.49000
C520        C  0.53106998  0.71341891  0.30152222     0.94500
O521        O  0.48515211  0.63169555  0.35145012    -0.79000
O522        O  0.60075412  0.61327075  0.41785355    -0.72600
Al523      Al  0.52441571  0.67523103  0.37114422     1.90100
O524        O  0.53027365  0.58244376  0.37180862    -0.71600
O525        O  0.65667561  0.60450311  0.36618946    -0.71500
O526        O  0.58032812  0.59366990  0.31686162    -0.77100
O527        O  0.67184260  0.66888857  0.37186788    -0.75300
O528        O  0.57772966  0.65570412  0.35949168    -1.11500
O529        O  0.61539186  0.73339883  0.36991324    -0.70700
C530        C  0.58369240  0.74523402  0.38772651     1.00100
C531        C  0.49045625  0.59517062  0.36002422     0.96400
Al532      Al  0.59085490  0.60322486  0.36749552     1.55600
O533        O  0.50688026  0.70161605  0.32542036    -0.75300
C534        C  0.68567287  0.63267711  0.37256153     1.00600
C535        C  0.57282668  0.63259264  0.43529785     0.95500
O536        O  0.53739149  0.65190032  0.41954114    -0.80600
O537        O  0.03696258  0.83316433  0.41894079    -0.80100
C538        C  0.10055657  0.87080978  0.29413776     0.99300
O539        O  0.08077635  0.89132784  0.31668433    -0.69200
O540        O  0.03035384  0.90266478  0.37148564    -0.72800
Al541      Al  0.09097103  0.88186206  0.36732798     1.49000
C542        C  0.99062799  0.89003538  0.35934146     0.94500
O543        O  0.00736935  0.78373855  0.32455767    -0.79000
O544        O  0.11571880  0.75184989  0.37032236    -0.72600
Al545      Al  0.02437918  0.80995042  0.37042857     1.90100
O546        O  0.07523201  0.77636112  0.30470508    -0.71600
O547        O  0.17203875  0.81641234  0.37235905    -0.71500
O548        O  0.12638062  0.84020520  0.30375006    -0.77100
O549        O  0.15682966  0.88073003  0.36624077    -0.75300
O550        O  0.07793435  0.82939563  0.35926653    -1.11500
O551        O  0.10051386  0.87171851  0.41766383    -0.70700
C552        C  0.07238920  0.85235046  0.43490777     1.00100
C553        C  0.03198472  0.77165683  0.30103272     0.96400
Al554      Al  0.11909842  0.79889416  0.33975220     1.55600
O555        O  0.98540865  0.85357972  0.35052938    -0.75300
C556        C  0.18583483  0.85262550  0.37293299     1.00600
C557        C  0.08355733  0.73997242  0.38765902     0.95500
O558        O  0.04915094  0.76194944  0.39091157    -0.80600
O559        O  0.96068664  0.72328489  0.11933886    -0.80100
C560        C  0.91037103  0.61418455  0.21665015     0.99300
O561        O  0.88462604  0.64488995  0.20725353    -0.69200
O562        O  0.93589840  0.70862380  0.20606913    -0.72800
Al563      Al  0.89161329  0.68627435  0.17125530     1.49000
C564        C  0.97910003  0.71351121  0.20931060     0.94500
O565        O  0.02502069  0.63175007  0.15934978    -0.79000
O566        O  0.90939556  0.61342414  0.09294358    -0.72600
Al567      Al  0.98578789  0.67532217  0.13970694     1.90100
O568        O  0.97989916  0.58254052  0.13891255    -0.71600
O569        O  0.85352701  0.60454870  0.14465302    -0.71500
O570        O  0.92991045  0.59375092  0.19392373    -0.77100
O571        O  0.83831186  0.66891533  0.13895682    -0.75300
O572        O  0.93245725  0.65580310  0.15131806    -1.11500
O573        O  0.89470664  0.73345360  0.14079397    -0.70700
C574        C  0.92650255  0.74533293  0.12309036     1.00100
C575        C  0.01971277  0.59524115  0.15073427     0.96400
Al576      Al  0.91933745  0.60332782  0.14329348     1.55600
O577        O  0.00333428  0.70160905  0.18547575    -0.75300
C578        C  0.82450444  0.63269951  0.13828170     1.00600
C579        C  0.93731237  0.63276794  0.07550244     0.95500
O580        O  0.97275739  0.65207106  0.09126477    -0.80600
O581        O  0.05019435  0.97300993  0.14163673    -0.80100
C582        C  0.10019254  0.86400111  0.04392867     0.99300
O583        O  0.12607055  0.89460541  0.05334079    -0.69200
O584        O  0.07445780  0.95813949  0.05419903    -0.72800
Al585      Al  0.11882937  0.93612580  0.08913512     1.49000
C586        C  0.03133457  0.96342817  0.05127417     0.94500
O587        O  0.98554699  0.88181468  0.10110338    -0.79000
O588        O  0.10114513  0.86328656  0.16764450    -0.72600
Al589      Al  0.02483154  0.92526215  0.12097914     1.90100
O590        O  0.03056812  0.83252278  0.12157890    -0.71600
O591        O  0.15704040  0.85456825  0.11598598    -0.71500
O592        O  0.08062935  0.84361598  0.06665995    -0.77100
O593        O  0.17212920  0.91899608  0.12155608    -0.75300
O594        O  0.07808299  0.90570212  0.10923789    -1.11500
O595        O  0.11552020  0.98350623  0.11930594    -0.70700
C596        C  0.08406473  0.99523646  0.13740762     1.00100
C597        C  0.99078869  0.84528055  0.10969059     0.96400
Al598      Al  0.09120588  0.85322651  0.11728219     1.55600
O599        O  0.00730774  0.95190291  0.07536886    -0.75300
C600        C  0.18599907  0.88278468  0.12234409     1.00600
C601        C  0.07313878  0.88251490  0.18507894     0.95500
O602        O  0.03767169  0.90174443  0.16930056    -0.80600
O603        O  0.97301085  0.58294314  0.34169803    -0.80100
C604        C  0.90953301  0.62082458  0.46648758     0.99300
O605        O  0.92916224  0.64133979  0.44385429    -0.69200
O606        O  0.97955901  0.65262007  0.38905266    -0.72800
Al607      Al  0.91897839  0.63176839  0.39323575     1.49000
C608        C  0.01929801  0.64004483  0.40121380     0.94500
O609        O  0.00271852  0.53386617  0.43620584    -0.79000
O610        O  0.89414910  0.00183240  0.39025612    -0.72600
Al611      Al  0.98564308  0.55988676  0.39027223     1.90100
O612        O  0.93481959  0.52616049  0.45591037    -0.71600
O613        O  0.83786609  0.56635468  0.38845644    -0.71500
O614        O  0.88381520  0.59011266  0.45699808    -0.77100
O615        O  0.85313962  0.63066622  0.39434815    -0.75300
O616        O  0.93205027  0.57931852  0.40138157    -1.11500
O617        O  0.90947157  0.62153985  0.34289898    -0.70700
C618        C  0.93764200  0.60217365  0.32568909     1.00100
C619        C  0.97809428  0.52162958  0.45966247     0.96400
Al620      Al  0.89091074  0.54881100  0.42093503     1.55600
O621        O  0.02457115  0.60360005  0.41004065    -0.75300
C622        C  0.82409790  0.60257056  0.38782704     1.00600
C623        C  0.92641034  0.98988529  0.37305004     0.95500
O624        O  0.96093846  0.51177982  0.36995690    -0.80600
C625        C  0.01066381  0.98373190  0.01945193    -0.11500
C626        C  0.99828361  0.50144658  0.49169871    -0.13100
C627        C  0.91871790  0.63038433  0.50429918    -0.11500
C628        C  0.92818914  0.63282297  0.03669368    -0.13100
C629        C  0.91959972  0.60450964  0.25444783    -0.11500
C630        C  0.92889962  0.60203913  0.28685834    -0.13100
C631        C  0.08062651  0.53664382  0.14918375    -0.11500
C632        C  0.05859382  0.56731680  0.15295393    -0.13100
C633        C  0.92985388  0.78670846  0.11119822    -0.11500
C634        C  0.95186919  0.81738808  0.10740279    -0.13100
C635        C  0.01183961  0.75144700  0.26900103    -0.11500
C636        C  0.99961066  0.73375017  0.24121357    -0.13100
C637        C  0.08015525  0.69867725  0.39972136    -0.11500
C638        C  0.05814069  0.66801082  0.40355131    -0.13100
C639        C  0.95174125  0.91795229  0.35703060    -0.11500
C640        C  0.92973618  0.94860791  0.36092049    -0.13100
C641        C  0.09147402  0.88023174  0.25629811    -0.11500
C642        C  0.08215928  0.88255627  0.22388757    -0.13100
C643        C  0.08129586  0.85210900  0.47372429    -0.11500
C644        C  0.09078576  0.85444056  0.00612464    -0.13100
C645        C  0.77515526  0.61252749  0.38184642    -0.11500
C646        C  0.73463856  0.62279603  0.37846065    -0.13100
C647        C  0.23497277  0.87293580  0.12834639    -0.11500
C648        C  0.27548849  0.86265086  0.13183678    -0.13100
C649        C  0.49832436  0.75136717  0.24184972    -0.11500
C650        C  0.51053514  0.73367017  0.26963828    -0.13100
C651        C  0.77554081  0.62279042  0.13238516    -0.11500
C652        C  0.73502206  0.61251747  0.12898592    -0.13100
C653        C  0.58136070  0.60205370  0.22394624    -0.11500
C654        C  0.59067765  0.60447405  0.25635582    -0.13100
C655        C  0.59139884  0.63027279  0.00649704    -0.11500
C656        C  0.58193519  0.63264970  0.47410119    -0.13100
C657        C  0.43000126  0.69860749  0.11105692    -0.11500
C658        C  0.45199649  0.66793131  0.10721853    -0.13100
C659        C  0.58050033  0.94858066  0.14988257    -0.11500
C660        C  0.55851709  0.91790783  0.15375339    -0.13100
C661        C  0.27529763  0.87281513  0.38252364    -0.11500
C662        C  0.23477480  0.86256272  0.37903787    -0.13100
C663        C  0.49951801  0.98363445  0.49143831    -0.11500
C664        C  0.51188334  0.50136067  0.01918720    -0.13100
C665        C  0.45156588  0.56725448  0.35782344    -0.11500
C666        C  0.42955493  0.53657801  0.36163663    -0.13100
C667        C  0.58034506  0.78661471  0.39960021    -0.11500
C668        C  0.55836307  0.81731145  0.40338875    -0.13100
C669        C  0.42810899  0.88255715  0.28694331    -0.11500
C670        C  0.41881366  0.88019592  0.25453130    -0.13100
C671        C  0.41950424  0.85430357  0.50469982    -0.11500
C672        C  0.42898404  0.85195146  0.03710128    -0.13100
O673        O  0.46009667  0.97299412  0.86930102    -0.80100
C674        C  0.41009993  0.86389640  0.96689928     0.99300
O675        O  0.38422358  0.89451067  0.95750610    -0.69200
O676        O  0.43574773  0.95810082  0.95662612    -0.72800
Al677      Al  0.39140427  0.93604148  0.92169708     1.49000
C678        C  0.47888107  0.96334060  0.95960202     0.94500
O679        O  0.52470683  0.88173658  0.90972925    -0.79000
O680        O  0.40910796  0.86326878  0.84317850    -0.72600
Al681      Al  0.48543109  0.92520953  0.88989851     1.90100
O682        O  0.47968373  0.83247323  0.88919812    -0.71600
O683        O  0.35323580  0.85446354  0.89485925    -0.71500
O684        O  0.42965904  0.84352450  0.94415446    -0.77100
O685        O  0.33812093  0.91888103  0.88928415    -0.75300
O686        O  0.43217239  0.90563707  0.90160599    -1.11500
O687        O  0.39466260  0.98341143  0.89149682    -0.70700
C688        C  0.42616381  0.99517881  0.87345353     1.00100
C689        C  0.51946019  0.84521456  0.90110593     0.96400
Al690      Al  0.41906161  0.85316467  0.89353523     1.55600
O691        O  0.50294522  0.95177701  0.93554384    -0.75300
C692        C  0.32426590  0.88266904  0.88850756     1.00600
C693        C  0.43711288  0.88251836  0.82575510     0.95500
O694        O  0.47257282  0.90175398  0.84154612    -0.80600
O695        O  0.53719176  0.58298526  0.66913538    -0.80100
C696        C  0.60061804  0.62078366  0.54431613     0.99300
O697        O  0.58096391  0.64129885  0.56693326    -0.69200
O698        O  0.53058466  0.65258055  0.62173406    -0.72800
Al699      Al  0.59118473  0.63176298  0.61755612     1.49000
C700        C  0.49085406  0.63997731  0.60957582     0.94500
O701        O  0.50749993  0.53373225  0.57470870    -0.79000
O702        O  0.61601083  0.00179834  0.62049442    -0.72600
Al703      Al  0.52457521  0.55985071  0.62059898     1.90100
O704        O  0.57534809  0.52620959  0.55487906    -0.71600
O705        O  0.67230357  0.56634282  0.62236871    -0.71500
O706        O  0.62639980  0.59012435  0.55383480    -0.77100
O707        O  0.65703420  0.63065803  0.61643782    -0.75300
O708        O  0.57813584  0.57930348  0.60944163    -1.11500
O709        O  0.60072622  0.62157164  0.66789436    -0.70700
C710        C  0.57257476  0.60220981  0.68512207     1.00100
C711        C  0.53208962  0.52157649  0.55119981     0.96400
Al712      Al  0.61926870  0.54881165  0.58986739     1.55600
O713        O  0.48560500  0.60352015  0.60077667    -0.75300
C714        C  0.68607511  0.60256116  0.62298741     1.00600
C715        C  0.58382633  0.98987238  0.63778745     0.95500
O716        O  0.54935456  0.51179672  0.64098610    -0.80600
O717        O  0.47328518  0.83298049  0.59189561    -0.80100
C718        C  0.40975444  0.87072917  0.71669661     0.99300
O719        O  0.42951480  0.89125173  0.69413773    -0.69200
O720        O  0.47991626  0.90258627  0.63930991    -0.72800
Al721      Al  0.41931767  0.88177973  0.64349323     1.49000
C722        C  0.51964671  0.88997293  0.65144531     0.94500
O723        O  0.50290617  0.78376289  0.68636098    -0.79000
O724        O  0.39439580  0.75184078  0.64036439    -0.72600
Al725      Al  0.48590181  0.80985865  0.64044445     1.90100
O726        O  0.43496212  0.77615480  0.70603238    -0.71600
O727        O  0.33816469  0.81643081  0.63848856    -0.71500
O728        O  0.38396592  0.84009127  0.70710705    -0.77100
O729        O  0.35346903  0.88072203  0.64460096    -0.75300
O730        O  0.43232811  0.82931349  0.65156205    -1.11500
O731        O  0.40977718  0.87160878  0.59315665    -0.70700
C732        C  0.43788221  0.85219757  0.57592082     1.00100
C733        C  0.47822834  0.77156519  0.70980115     0.96400
Al734      Al  0.39112244  0.79881859  0.67103578     1.55600
O735        O  0.52487955  0.85352248  0.66026576    -0.75300
C736        C  0.32441827  0.85265534  0.63792707     1.00600
C737        C  0.42665585  0.73989525  0.62315783     0.95500
O738        O  0.46117484  0.76179489  0.62006014    -0.80600
O739        O  0.54958572  0.72314037  0.89159792    -0.80100
C740        C  0.59989943  0.61410376  0.79415756     0.99300
O741        O  0.62565807  0.64478496  0.80358268    -0.69200
O742        O  0.57425205  0.70843009  0.80468495    -0.72800
Al743      Al  0.61855642  0.68618030  0.83952974     1.49000
C744        C  0.53107000  0.71341892  0.80152229     0.94500
O745        O  0.48515213  0.63169561  0.85145005    -0.79000
O746        O  0.60075414  0.61327079  0.91785357    -0.72600
Al747      Al  0.52441570  0.67523106  0.87114419     1.90100
O748        O  0.53027365  0.58244382  0.87180860    -0.71600
O749        O  0.65667562  0.60450319  0.86618943    -0.71500
O750        O  0.58032814  0.59366997  0.81686155    -0.77100
O751        O  0.67184262  0.66888865  0.87186787    -0.75300
O752        O  0.57772966  0.65570416  0.85949165    -1.11500
O753        O  0.61539190  0.73339882  0.86991323    -0.70700
C754        C  0.58369232  0.74523421  0.88772662     1.00100
C755        C  0.49045627  0.59517061  0.86002418     0.96400
Al756      Al  0.59085490  0.60322491  0.86749549     1.55600
O757        O  0.50688028  0.70161610  0.82542031    -0.75300
C758        C  0.68567287  0.63267709  0.87256152     1.00600
C759        C  0.57282659  0.63259269  0.93529763     0.95500
O760        O  0.53739151  0.65190030  0.91954115    -0.80600
O761        O  0.03696265  0.83316428  0.91894081    -0.80100
C762        C  0.10055651  0.87080982  0.79413781     0.99300
O763        O  0.08077637  0.89132779  0.81668430    -0.69200
O764        O  0.03035380  0.90266474  0.87148565    -0.72800
Al765      Al  0.09097101  0.88186202  0.86732797     1.49000
C766        C  0.99062803  0.89003525  0.85934147     0.94500
O767        O  0.00736936  0.78373844  0.82455759    -0.79000
O768        O  0.11571876  0.75184976  0.87032228    -0.72600
Al769      Al  0.02437920  0.80995036  0.87042855     1.90100
O770        O  0.07523195  0.77636112  0.80470494    -0.71600
O771        O  0.17203877  0.81641235  0.87235901    -0.71500
O772        O  0.12638068  0.84020518  0.80375005    -0.77100
O773        O  0.15682963  0.88073004  0.86624076    -0.75300
O774        O  0.07793435  0.82939559  0.85926650    -1.11500
O775        O  0.10051389  0.87171850  0.91766381    -0.70700
C776        C  0.07238907  0.85235032  0.93490773     1.00100
C777        C  0.03198482  0.77165695  0.80103288     0.96400
Al778      Al  0.11909842  0.79889414  0.83975215     1.55600
O779        O  0.98540861  0.85357970  0.85052940    -0.75300
C780        C  0.18583482  0.85262538  0.87293297     1.00600
C781        C  0.08355742  0.73997257  0.88765883     0.95500
O782        O  0.04915099  0.76194931  0.89091154    -0.80600
O783        O  0.96068671  0.72328488  0.61933884    -0.80100
C784        C  0.91037114  0.61418443  0.71665019     0.99300
O785        O  0.88462602  0.64488993  0.70725345    -0.69200
O786        O  0.93589841  0.70862378  0.70606916    -0.72800
Al787      Al  0.89161330  0.68627430  0.67125527     1.49000
C788        C  0.97910000  0.71351104  0.70931035     0.94500
O789        O  0.02502068  0.63175002  0.65934975    -0.79000
O790        O  0.90939557  0.61342413  0.59294365    -0.72600
Al791      Al  0.98578790  0.67532214  0.63970692     1.90100
O792        O  0.97989916  0.58254048  0.63891246    -0.71600
O793        O  0.85352700  0.60454869  0.64465303    -0.71500
O794        O  0.92991047  0.59375090  0.69392365    -0.77100
O795        O  0.83831186  0.66891532  0.63895677    -0.75300
O796        O  0.93245727  0.65580308  0.65131804    -1.11500
O797        O  0.89470672  0.73345358  0.64079393    -0.70700
C798        C  0.92650247  0.74533286  0.62309039     1.00100
C799        C  0.01971278  0.59524110  0.65073419     0.96400
Al800      Al  0.91933746  0.60332779  0.64329345     1.55600
O801        O  0.00333425  0.70160907  0.68547579    -0.75300
C802        C  0.82450447  0.63269944  0.63828167     1.00600
C803        C  0.93731228  0.63276790  0.57550215     0.95500
O804        O  0.97275747  0.65207106  0.59126484    -0.80600
O805        O  0.05019441  0.97300993  0.64163669    -0.80100
C806        C  0.10019272  0.86400129  0.54392855     0.99300
O807        O  0.12607045  0.89460530  0.55334077    -0.69200
O808        O  0.07445788  0.95813944  0.55419908    -0.72800
Al809      Al  0.11882936  0.93612580  0.58913509     1.49000
C810        C  0.03133437  0.96342838  0.55127385     0.94500
O811        O  0.98554697  0.88181466  0.60110338    -0.79000
O812        O  0.10114510  0.86328655  0.66764449    -0.72600
Al813      Al  0.02483154  0.92526217  0.62097912     1.90100
O814        O  0.03056813  0.83252280  0.62157888    -0.71600
O815        O  0.15704047  0.85456832  0.61598600    -0.71500
O816        O  0.08062924  0.84361590  0.56665998    -0.77100
O817        O  0.17212919  0.91899615  0.62155606    -0.75300
O818        O  0.07808300  0.90570212  0.60923787    -1.11500
O819        O  0.11552026  0.98350620  0.61930586    -0.70700
C820        C  0.08406463  0.99523656  0.63740766     1.00100
C821        C  0.99078875  0.84528064  0.60969060     0.96400
Al822      Al  0.09120587  0.85322651  0.61728216     1.55600
O823        O  0.00730776  0.95190284  0.57536896    -0.75300
C824        C  0.18599896  0.88278453  0.62234405     1.00600
C825        C  0.07313881  0.88251488  0.68507887     0.95500
O826        O  0.03767170  0.90174445  0.66930055    -0.80600
O827        O  0.97301083  0.58294310  0.84169803    -0.80100
C828        C  0.90953295  0.62082451  0.96648730     0.99300
O829        O  0.92916224  0.64133979  0.94385435    -0.69200
O830        O  0.97955898  0.65262013  0.88905257    -0.72800
Al831      Al  0.91897840  0.63176835  0.89323572     1.49000
C832        C  0.01929796  0.64004437  0.90121382     0.94500
O833        O  0.00271849  0.53386610  0.93620588    -0.79000
O834        O  0.89414915  0.00183238  0.89025610    -0.72600
Al835      Al  0.98564306  0.55988670  0.89027222     1.90100
O836        O  0.93481956  0.52616046  0.95591037    -0.71600
O837        O  0.83786609  0.56635459  0.88845645    -0.71500
O838        O  0.88381523  0.59011273  0.95699816    -0.77100
O839        O  0.85313958  0.63066615  0.89434810    -0.75300
O840        O  0.93205026  0.57931848  0.90138156    -1.11500
O841        O  0.90947154  0.62153982  0.84289900    -0.70700
C842        C  0.93764207  0.60217354  0.82568894     1.00100
C843        C  0.97809418  0.52162963  0.95966232     0.96400
Al844      Al  0.89091071  0.54881099  0.92093502     1.55600
O845        O  0.02457112  0.60360019  0.91004059    -0.75300
C846        C  0.82409793  0.60257072  0.88782706     1.00600
C847        C  0.92641023  0.98988533  0.87305009     0.95500
O848        O  0.96093853  0.51177979  0.86995688    -0.80600
C849        C  0.01066403  0.98373165  0.51945240    -0.11500
C850        C  0.99828362  0.50144647  0.99169888    -0.13100
C851        C  0.91871803  0.63038442  0.00429956    -0.11500
C852        C  0.92818924  0.63282298  0.53669407    -0.13100
C853        C  0.91959973  0.60450962  0.75444763    -0.11500
C854        C  0.92889966  0.60203907  0.78685845    -0.13100
C855        C  0.08062655  0.53664376  0.64918367    -0.11500
C856        C  0.05859381  0.56731679  0.65295385    -0.13100
C857        C  0.92985393  0.78670852  0.61119818    -0.11500
C858        C  0.95186915  0.81738798  0.60740283    -0.13100
C859        C  0.01183944  0.75144682  0.76900071    -0.11500
C860        C  0.99961080  0.73375029  0.74121382    -0.13100
C861        C  0.08015512  0.69867685  0.89972131    -0.11500
C862        C  0.05814094  0.66801107  0.90355116    -0.13100
C863        C  0.95174116  0.91795237  0.85703062    -0.11500
C864        C  0.92973623  0.94860779  0.86092046    -0.13100
C865        C  0.09147400  0.88023171  0.75629805    -0.11500
C866        C  0.08215929  0.88255628  0.72388761    -0.13100
C867        C  0.08129591  0.85210896  0.97372434    -0.11500
C868        C  0.09078576  0.85444053  0.50612469    -0.13100
C869        C  0.77515526  0.61252744  0.88184643    -0.11500
C870        C  0.73463854  0.62279607  0.87846065    -0.13100
C871        C  0.23497287  0.87293584  0.62834638    -0.11500
C872        C  0.27548840  0.86265091  0.63183676    -0.13100
C873        C  0.49832436  0.75136715  0.74184983    -0.11500
C874        C  0.51053507  0.73367027  0.76963818    -0.13100
C875        C  0.77554079  0.62279039  0.63238511    -0.11500
C876        C  0.73502209  0.61251745  0.62898592    -0.13100
C877        C  0.58136079  0.60205375  0.72394649    -0.11500
C878        C  0.59067763  0.60447407  0.75635559    -0.13100
C879        C  0.59139893  0.63027279  0.50649732    -0.11500
C880        C  0.58193526  0.63264971  0.97410143    -0.13100
C881        C  0.43000126  0.69860734  0.61105693    -0.11500
C882        C  0.45199642  0.66793139  0.60721859    -0.13100
C883        C  0.58050058  0.94858095  0.64988256    -0.11500
C884        C  0.55851690  0.91790754  0.65375348    -0.13100
C885        C  0.27529758  0.87281517  0.88252366    -0.11500
C886        C  0.23477483  0.86256274  0.87903786    -0.13100
C887        C  0.49951811  0.98363453  0.99143830    -0.11500
C888        C  0.51188332  0.50136067  0.51918726    -0.13100
C889        C  0.45156593  0.56725456  0.85782337    -0.11500
C890        C  0.42955494  0.53657800  0.86163660    -0.13100
C891        C  0.58034519  0.78661450  0.89960021    -0.11500
C892        C  0.55836286  0.81731170  0.90338883    -0.13100
C893        C  0.42810887  0.88255717  0.78694297    -0.11500
C894        C  0.41881369  0.88019601  0.75453161    -0.13100
C895        C  0.41950430  0.85430359  0.00469996    -0.11500
C896        C  0.42898413  0.85195139  0.53710149    -0.13100
loop_ 
_geom_bond_atom_site_label_1 
_geom_bond_atom_site_label_2 
_geom_bond_distance 
_geom_bond_site_symmetry_2 
_ccdc_geom_bond_type 
O1           C16   1.249       .  A
O1           Al9   1.858       .  S
C2           O12   1.272       .  A
C2            O3   1.276       .  A
C2          C223   1.437       .  S
O3           Al5   1.942       .  S
O4            C6   1.250       .  A
O4           Al5   1.853       .  S
Al5          O13   1.915       .  S
Al5          O15   1.934       .  S
Al5          O14   1.785       .  S
C6           O19   1.266       .  A
C6          C215   1.424       .  S
O7           C17   1.248       .  A
O7           Al9   1.914       .  S
O8           C21   1.273       .  A
O8          Al18   1.895       .  S
Al9          O22   1.954       .  S
Al9          O19   1.924       .  S
Al9          O14   1.777       .  S
O10          C17   1.250       .  A
O10         Al18   1.907       .  S
O11          C20   1.252       .  A
O11         Al18   1.911       .  S
O12         Al18   1.902       .  S
O13          C20   1.256       .  A
O14         Al18   1.785       .  S
O15          C16   1.263       .  A
C16         C666   1.439       .  S
C17         C220   1.446       .  S
C20         C213   1.441       .  S
C21          O22   1.281       .  A
C21         C221   1.439       .  S
O23          C38   1.282       .  A
O23         Al31   1.956       .  S
C24          O34   1.277       .  A
C24          O25   1.273       .  A
C24         C207   1.437       .  S
O25         Al27   1.901       .  S
O26          C28   1.249       .  A
O26         Al27   1.907       .  S
Al27         O35   1.911       .  S
Al27         O37   1.894       .  S
Al27         O36   1.784       .  S
C28          O41   1.248       .  A
C28         C210   1.446       .  S
O29          C39   1.266       .  A
O29         Al31   1.923       .  S
O30          C43   1.264       .  A
O30        Al488   1.934       .  S
Al31         O44   1.857       .  S
Al31         O41   1.914       .  S
Al31         O36   1.776       .  S
O32          C39   1.250       .  A
O32         Al40   1.854       .  S
O33          C42   1.256       .  A
O33         Al40   1.915       .  S
O34         Al40   1.943       .  S
O35          C42   1.251       .  A
O36         Al40   1.785       .  S
O37          C38   1.273       .  A
C38         C205   1.439       .  S
C39         C216   1.425       .  S
Al40        O478   1.934       .  S
C42         C204   1.441       .  S
C43         O492   1.249       .  A
C43         C211   1.439       .  S
O44         C491   1.249   1_545  A
O45          C60   1.282       .  A
O45         Al53   1.956       .  S
C46          O56   1.277       .  A
C46          O47   1.273       .  A
C46         C222   1.437       .  S
O47         Al49   1.902       .  S
O48          C50   1.249       .  A
O48         Al49   1.907       .  S
Al49         O57   1.911       .  S
Al49         O59   1.894       .  S
Al49         O58   1.784       .  S
C50          O63   1.248       .  A
C50         C212   1.446       .  S
O51          C61   1.266       .  A
O51         Al53   1.923       .  S
O52          C65   1.264       .  A
O52         Al62   1.934       .  S
Al53         O66   1.857       .  S
Al53         O63   1.914       .  S
Al53         O58   1.776       .  S
O54          C61   1.250       .  A
O54         Al62   1.853       .  S
O55          C64   1.256       .  A
O55         Al62   1.915       .  S
O56         Al62   1.943       .  S
O57          C64   1.251       .  A
O58         Al62   1.785       .  S
O59          C60   1.273       .  A
C60         C224   1.439       .  S
C61         C201   1.424       .  S
C64         C200   1.441       .  S
C65          O66   1.249       .  A
C65         C209   1.439       .  S
O67          C82   1.249       .  A
O67         Al75   1.858       .  S
C68          O78   1.272       .  A
C68          O69   1.276       .  A
C68         C206   1.437       .  S
O69         Al71   1.943       .  S
O70          C72   1.250       .  A
O70         Al71   1.852       .  S
Al71         O79   1.915       .  S
Al71         O81   1.933       .  S
Al71         O80   1.786       .  S
C72          O85   1.266       .  A
C72         C202   1.424       .  S
O73          C83   1.248       .  A
O73         Al75   1.914       .  S
O74          C87   1.273       .  A
O74         Al84   1.894       .  S
Al75         O88   1.954       .  S
Al75         O85   1.923       .  S
Al75         O80   1.777       .  S
O76          C83   1.249       .  A
O76         Al84   1.907       .  S
O77          C86   1.252       .  A
O77         Al84   1.911       .  S
O78         Al84   1.902       .  S
O79          C86   1.256       .  A
O80         Al84   1.785       .  S
O81          C82   1.263       .  A
C82         C219   1.439       .  S
C83         C217   1.446       .  S
C86         C198   1.441       .  S
C87          O88   1.281       .  A
C87         C208   1.439       .  S
O89         C104   1.282       .  A
O89         Al97   1.956       .  S
C90         O100   1.277       .  A
C90          O91   1.273       .  A
C90         C193   1.437       .  S
O91         Al93   1.902       .  S
O92          C94   1.249   1_455  A
O92         Al93   1.907       .  S
Al93        O101   1.911       .  S
Al93        O103   1.894       .  S
Al93        O102   1.784       .  S
C94         O107   1.248       .  A
C94         C191   1.446       .  S
O95         C105   1.266       .  A
O95         Al97   1.923       .  S
O96         C109   1.263       .  A
O96        Al106   1.934       .  S
Al97        O110   1.857       .  S
Al97        O107   1.914   1_455  S
Al97        O102   1.776       .  S
O98         C105   1.250       .  A
O98        Al106   1.853       .  S
O99         C108   1.256       .  A
O99        Al106   1.915       .  S
O100       Al106   1.943       .  S
O101        C108   1.251       .  A
O102       Al106   1.785       .  S
O103        C104   1.273       .  A
C104        C195   1.439       .  S
C105        C187   1.425       .  S
C108        C214   1.441       .  S
C109        O110   1.249       .  A
C109        C189   1.439       .  S
O111        C126   1.249       .  A
O111       Al119   1.857       .  S
C112        O122   1.272       .  A
C112        O113   1.276       .  A
C112        C181   1.438       .  S
O113       Al115   1.943       .  S
O114        C116   1.250       .  A
O114       Al115   1.853       .  S
Al115       O123   1.915       .  S
Al115       O125   1.934       .  S
Al115       O124   1.785       .  S
C116        O129   1.266   1_655  A
C116        C188   1.424       .  S
O117        C127   1.248       .  A
O117       Al119   1.913   1_455  S
O118        C131   1.273       .  A
O118       Al128   1.894       .  S
Al119       O132   1.955       .  S
Al119       O129   1.924   1_655  S
Al119       O124   1.776       .  S
O120        C127   1.249   1_655  A
O120       Al128   1.907       .  S
O121        C130   1.251       .  A
O121       Al128   1.911       .  S
O122       Al128   1.902       .  S
O123        C130   1.256       .  A
O124       Al128   1.784       .  S
O125        C126   1.263       .  A
C126        C185   1.439       .  S
C127        C184   1.446       .  S
C130        C203   1.441       .  S
C131        O132   1.281       .  A
C131        C180   1.439       .  S
O133        C148   1.249       .  A
O133       Al141   1.858       .  S
C134        O144   1.272       .  A
C134        O135   1.276       .  A
C134        C196   1.437       .  S
O135       Al137   1.942       .  S
O136        C138   1.250       .  A
O136       Al137   1.853       .  S
Al137       O145   1.915       .  S
Al137       O147   1.933       .  S
Al137       O146   1.786       .  S
C138        O151   1.266       .  A
C138        C177   1.424       .  S
O139        C149   1.248       .  A
O139       Al141   1.914   1_655  S
O140        C153   1.273       .  A
O140       Al150   1.895       .  S
Al141       O154   1.954       .  S
Al141       O151   1.924       .  S
Al141       O146   1.777       .  S
O142        C149   1.250   1_455  A
O142       Al150   1.908       .  S
O143        C152   1.252       .  A
O143       Al150   1.911       .  S
O144       Al150   1.902       .  S
O145        C152   1.256       .  A
O146       Al150   1.785       .  S
O147        C148   1.263       .  A
C148        C631   1.439       .  S
C149        C186   1.446       .  S
C152        C199   1.441       .  S
C153        O154   1.281       .  A
C153        C194   1.439       .  S
O155        C170   1.282       .  A
O155       Al163   1.956       .  S
C156        O166   1.277       .  A
C156        O157   1.273       .  A
C156        C179   1.437       .  S
O157       Al159   1.901       .  S
O158        C160   1.249   1_655  A
O158       Al159   1.907       .  S
Al159       O167   1.910       .  S
Al159       O169   1.894       .  S
Al159       O168   1.784       .  S
C160        O173   1.248       .  A
C160        C190   1.446       .  S
O161        C171   1.266   1_455  A
O161       Al163   1.923   1_455  S
O162        C175   1.264       .  A
O162       Al620   1.934       .  S
Al163       O176   1.857       .  S
Al163       O173   1.914   1_655  S
Al163       O168   1.776       .  S
O164        C171   1.250       .  A
O164       Al172   1.854       .  S
O165        C174   1.256       .  A
O165       Al172   1.915       .  S
O166       Al172   1.943       .  S
O167        C174   1.251       .  A
O168       Al172   1.785       .  S
O169        C170   1.273       .  A
C170        C182   1.439       .  S
C171        C178   1.425       .  S
Al172       O610   1.934       .  S
C174        C197   1.441       .  S
C175        O624   1.249       .  A
C175        C192   1.439       .  S
O176        C623   1.249   1_545  A
C177        C850   1.202   1_454  T
C178        C849   1.202   1_645  T
C179        C404   1.208       .  T
C180        C403   1.208       .  T
C181        C182   1.208       .  T
C183        C596   1.439   1_545  S
C183        C184   1.212       .  T
C185        C186   1.212       .  T
C187        C188   1.202   1_455  T
C189        C190   1.212       .  T
C191        C192   1.212       .  T
C193        C194   1.208       .  T
C195        C420   1.208       .  T
C196        C419   1.208   1_554  T
C197        C198   1.210       .  T
C199        C200   1.210       .  T
C201        C202   1.202       .  T
C203        C204   1.210       .  T
C205        C206   1.208       .  T
C207        C432   1.208   1_554  T
C208        C431   1.208       .  T
C209        C210   1.212       .  T
C211        C212   1.212       .  T
C213        C214   1.210       .  T
C215        C888   1.202       .  T
C216        C887   1.202   1_544  T
C217        C218   1.212       .  T
C218        C464   1.439   1_545  S
C219        C220   1.212       .  T
C221        C222   1.208       .  T
C223        C448   1.208       .  T
C224        C447   1.208       .  T
O225        C240   1.249       .  A
O225       Al233   1.858       .  S
C226        O236   1.272       .  A
C226        O227   1.276       .  A
C226        C447   1.437   1_556  S
O227       Al229   1.942       .  S
O228        C230   1.250       .  A
O228       Al229   1.853       .  S
Al229       O237   1.915       .  S
Al229       O239   1.934       .  S
Al229       O238   1.785       .  S
C230        O243   1.266       .  A
C230        C439   1.424       .  S
O231        C241   1.248       .  A
O231       Al233   1.914       .  S
O232        C245   1.273       .  A
O232       Al242   1.895       .  S
Al233       O246   1.954       .  S
Al233       O243   1.924       .  S
Al233       O238   1.777       .  S
O234        C241   1.250       .  A
O234       Al242   1.907       .  S
O235        C244   1.252       .  A
O235       Al242   1.911       .  S
O236       Al242   1.902       .  S
O237        C244   1.256       .  A
O238       Al242   1.785       .  S
O239        C240   1.263       .  A
C240        C890   1.439       .  S
C241        C444   1.446       .  S
C244        C437   1.441       .  S
C245        O246   1.281       .  A
C245        C445   1.439       .  S
O247        C262   1.282       .  A
O247       Al255   1.956       .  S
C248        O258   1.277       .  A
C248        O249   1.273       .  A
C248        C431   1.437       .  S
O249       Al251   1.901       .  S
O250        C252   1.249       .  A
O250       Al251   1.907       .  S
Al251       O259   1.911       .  S
Al251       O261   1.894       .  S
Al251       O260   1.784       .  S
C252        O265   1.248       .  A
C252        C434   1.446       .  S
O253        C263   1.266       .  A
O253       Al255   1.923       .  S
O254        C267   1.264       .  A
O254       Al712   1.934       .  S
Al255       O268   1.857       .  S
Al255       O265   1.914       .  S
Al255       O260   1.776       .  S
O256        C263   1.250       .  A
O256       Al264   1.854       .  S
O257        C266   1.256       .  A
O257       Al264   1.915       .  S
O258       Al264   1.943       .  S
O259        C266   1.251       .  A
O260       Al264   1.785       .  S
O261        C262   1.273       .  A
C262        C429   1.439       .  S
C263        C440   1.425       .  S
Al264       O702   1.934       .  S
C266        C428   1.441       .  S
C267        O716   1.249       .  A
C267        C435   1.439       .  S
O268        C715   1.249   1_545  A
O269        C284   1.282       .  A
O269       Al277   1.956       .  S
C270        O280   1.277       .  A
C270        O271   1.273       .  A
C270        C446   1.437       .  S
O271       Al273   1.902       .  S
O272        C274   1.249       .  A
O272       Al273   1.907       .  S
Al273       O281   1.911       .  S
Al273       O283   1.894       .  S
Al273       O282   1.784       .  S
C274        O287   1.248       .  A
C274        C436   1.446       .  S
O275        C285   1.266       .  A
O275       Al277   1.923       .  S
O276        C289   1.264       .  A
O276       Al286   1.934       .  S
Al277       O290   1.857       .  S
Al277       O287   1.914       .  S
Al277       O282   1.776       .  S
O278        C285   1.250       .  A
O278       Al286   1.853       .  S
O279        C288   1.256       .  A
O279       Al286   1.915       .  S
O280       Al286   1.943       .  S
O281        C288   1.251       .  A
O282       Al286   1.785       .  S
O283        C284   1.273       .  A
C284        C448   1.439       .  S
C285        C425   1.424       .  S
C288        C424   1.441       .  S
C289        O290   1.249       .  A
C289        C433   1.439       .  S
O291        C306   1.249       .  A
O291       Al299   1.858       .  S
C292        O302   1.272       .  A
C292        O293   1.276       .  A
C292        C430   1.437       .  S
O293       Al295   1.943       .  S
O294        C296   1.250       .  A
O294       Al295   1.852       .  S
Al295       O303   1.915       .  S
Al295       O305   1.933       .  S
Al295       O304   1.786       .  S
C296        O309   1.266       .  A
C296        C426   1.424       .  S
O297        C307   1.248       .  A
O297       Al299   1.914       .  S
O298        C311   1.273       .  A
O298       Al308   1.894       .  S
Al299       O312   1.954       .  S
Al299       O309   1.923       .  S
Al299       O304   1.777       .  S
O300        C307   1.249       .  A
O300       Al308   1.907       .  S
O301        C310   1.252       .  A
O301       Al308   1.911       .  S
O302       Al308   1.902       .  S
O303        C310   1.256       .  A
O304       Al308   1.785       .  S
O305        C306   1.263       .  A
C306        C443   1.439       .  S
C307        C441   1.446       .  S
C310        C422   1.441       .  S
C311        O312   1.281       .  A
C311        C432   1.439       .  S
O313        C328   1.282       .  A
O313       Al321   1.956       .  S
C314        O324   1.277       .  A
C314        O315   1.273       .  A
C314        C417   1.437       .  S
O315       Al317   1.902       .  S
O316        C318   1.249   1_455  A
O316       Al317   1.907       .  S
Al317       O325   1.911       .  S
Al317       O327   1.894       .  S
Al317       O326   1.784       .  S
C318        O331   1.248       .  A
C318        C415   1.446       .  S
O319        C329   1.266       .  A
O319       Al321   1.923       .  S
O320        C333   1.263       .  A
O320       Al330   1.934       .  S
Al321       O334   1.857       .  S
Al321       O331   1.914   1_455  S
Al321       O326   1.776       .  S
O322        C329   1.250       .  A
O322       Al330   1.853       .  S
O323        C332   1.256       .  A
O323       Al330   1.915       .  S
O324       Al330   1.943       .  S
O325        C332   1.251       .  A
O326       Al330   1.785       .  S
O327        C328   1.273       .  A
C328        C419   1.439       .  S
C329        C411   1.425       .  S
C332        C438   1.441       .  S
C333        O334   1.249       .  A
C333        C413   1.439       .  S
O335        C350   1.249       .  A
O335       Al343   1.857       .  S
C336        O346   1.272       .  A
C336        O337   1.276       .  A
C336        C405   1.438       .  S
O337       Al339   1.943       .  S
O338        C340   1.250       .  A
O338       Al339   1.853       .  S
Al339       O347   1.915       .  S
Al339       O349   1.934       .  S
Al339       O348   1.785       .  S
C340        O353   1.266   1_655  A
C340        C412   1.424       .  S
O341        C351   1.248       .  A
O341       Al343   1.913   1_455  S
O342        C355   1.273       .  A
O342       Al352   1.894       .  S
Al343       O356   1.955       .  S
Al343       O353   1.924   1_655  S
Al343       O348   1.776       .  S
O344        C351   1.249   1_655  A
O344       Al352   1.907       .  S
O345        C354   1.251       .  A
O345       Al352   1.911       .  S
O346       Al352   1.902       .  S
O347        C354   1.256       .  A
O348       Al352   1.784       .  S
O349        C350   1.263       .  A
C350        C409   1.439       .  S
C351        C408   1.446       .  S
C354        C427   1.441       .  S
C355        O356   1.281       .  A
C355        C404   1.439       .  S
O357        C372   1.249       .  A
O357       Al365   1.858       .  S
C358        O368   1.272       .  A
C358        O359   1.276       .  A
C358        C420   1.437       .  S
O359       Al361   1.942       .  S
O360        C362   1.250       .  A
O360       Al361   1.853       .  S
Al361       O369   1.915       .  S
Al361       O371   1.933       .  S
Al361       O370   1.786       .  S
C362        O375   1.266       .  A
C362        C401   1.424       .  S
O363        C373   1.248       .  A
O363       Al365   1.914   1_655  S
O364        C377   1.273       .  A
O364       Al374   1.895       .  S
Al365       O378   1.954       .  S
Al365       O375   1.924       .  S
Al365       O370   1.777       .  S
O366        C373   1.250   1_455  A
O366       Al374   1.908       .  S
O367        C376   1.252       .  A
O367       Al374   1.911       .  S
O368       Al374   1.902       .  S
O369        C376   1.256       .  A
O370       Al374   1.785       .  S
O371        C372   1.263       .  A
C372        C855   1.439       .  S
C373        C410   1.446       .  S
C376        C423   1.441       .  S
C377        O378   1.281       .  A
C377        C418   1.439       .  S
O379        C394   1.282       .  A
O379       Al387   1.956       .  S
C380        O390   1.277       .  A
C380        O381   1.273       .  A
C380        C403   1.437   1_556  S
O381       Al383   1.901       .  S
O382        C384   1.249   1_655  A
O382       Al383   1.907       .  S
Al383       O391   1.910       .  S
Al383       O393   1.894       .  S
Al383       O392   1.784       .  S
C384        O397   1.248       .  A
C384        C414   1.446       .  S
O385        C395   1.266   1_455  A
O385       Al387   1.923   1_455  S
O386        C399   1.264       .  A
O386       Al844   1.934       .  S
Al387       O400   1.857       .  S
Al387       O397   1.914   1_655  S
Al387       O392   1.776       .  S
O388        C395   1.250       .  A
O388       Al396   1.854       .  S
O389        C398   1.256       .  A
O389       Al396   1.915       .  S
O390       Al396   1.943       .  S
O391        C398   1.251       .  A
O392       Al396   1.785       .  S
O393        C394   1.273       .  A
C394        C406   1.439       .  S
C395        C402   1.425       .  S
Al396       O834   1.934       .  S
C398        C421   1.441       .  S
C399        O848   1.249       .  A
C399        C416   1.439       .  S
O400        C847   1.249   1_545  A
C401        C626   1.202   1_455  T
C402        C625   1.202   1_646  T
C405        C406   1.208       .  T
C407        C820   1.439   1_545  S
C407        C408   1.212       .  T
C409        C410   1.212       .  T
C411        C412   1.202   1_455  T
C413        C414   1.211       .  T
C415        C416   1.212       .  T
C417        C418   1.208       .  T
C421        C422   1.210       .  T
C423        C424   1.210       .  T
C425        C426   1.202       .  T
C427        C428   1.210       .  T
C429        C430   1.208       .  T
C433        C434   1.212       .  T
C435        C436   1.212       .  T
C437        C438   1.210       .  T
C439        C664   1.202   1_556  T
C440        C663   1.202   1_545  T
C441        C442   1.212       .  T
C442        C688   1.439   1_545  S
C443        C444   1.212       .  T
C445        C446   1.208       .  T
O449        C464   1.249       .  A
O449       Al457   1.858       .  S
C450        O460   1.272       .  A
C450        O451   1.276       .  A
C450        C671   1.437       .  S
O451       Al453   1.942       .  S
O452        C454   1.250       .  A
O452       Al453   1.853       .  S
Al453       O461   1.915       .  S
Al453       O463   1.934       .  S
Al453       O462   1.785       .  S
C454        O467   1.266       .  A
C454        C663   1.424       .  S
O455        C465   1.248       .  A
O455       Al457   1.914       .  S
O456        C469   1.273       .  A
O456       Al466   1.895       .  S
Al457       O470   1.954       .  S
Al457       O467   1.924       .  S
Al457       O462   1.777       .  S
O458        C465   1.250       .  A
O458       Al466   1.907       .  S
O459        C468   1.252       .  A
O459       Al466   1.911       .  S
O460       Al466   1.902       .  S
O461        C468   1.256       .  A
O462       Al466   1.785       .  S
O463        C464   1.263       .  A
C465        C668   1.446       .  S
C468        C661   1.441       .  S
C469        O470   1.281       .  A
C469        C669   1.439       .  S
O471        C486   1.282       .  A
O471       Al479   1.956       .  S
C472        O482   1.277       .  A
C472        O473   1.273       .  A
C472        C655   1.437       .  S
O473       Al475   1.901       .  S
O474        C476   1.249       .  A
O474       Al475   1.907       .  S
Al475       O483   1.911       .  S
Al475       O485   1.894       .  S
Al475       O484   1.784       .  S
C476        O489   1.248       .  A
C476        C658   1.446       .  S
O477        C487   1.266       .  A
O477       Al479   1.923       .  S
O478        C491   1.264   1_545  A
Al479       O492   1.857       .  S
Al479       O489   1.914       .  S
Al479       O484   1.776       .  S
O480        C487   1.250       .  A
O480       Al488   1.854       .  S
O481        C490   1.256       .  A
O481       Al488   1.915       .  S
O482       Al488   1.943       .  S
O483        C490   1.251       .  A
O484       Al488   1.785       .  S
O485        C486   1.273       .  A
C486        C653   1.439       .  S
C487        C664   1.425       .  S
C490        C652   1.441       .  S
C491        C659   1.439       .  S
O493        C508   1.282       .  A
O493       Al501   1.956       .  S
C494        O504   1.277       .  A
C494        O495   1.273       .  A
C494        C670   1.437       .  S
O495       Al497   1.902       .  S
O496        C498   1.249       .  A
O496       Al497   1.907       .  S
Al497       O505   1.911       .  S
Al497       O507   1.894       .  S
Al497       O506   1.784       .  S
C498        O511   1.248       .  A
C498        C660   1.446       .  S
O499        C509   1.266       .  A
O499       Al501   1.923       .  S
O500        C513   1.264       .  A
O500       Al510   1.934       .  S
Al501       O514   1.857       .  S
Al501       O511   1.914       .  S
Al501       O506   1.776       .  S
O502        C509   1.250       .  A
O502       Al510   1.853       .  S
O503        C512   1.256       .  A
O503       Al510   1.915       .  S
O504       Al510   1.943       .  S
O505        C512   1.251       .  A
O506       Al510   1.785       .  S
O507        C508   1.273       .  A
C508        C672   1.439       .  S
C509        C649   1.424       .  S
C512        C648   1.441       .  S
C513        O514   1.249       .  A
C513        C657   1.439       .  S
O515        C530   1.249       .  A
O515       Al523   1.858       .  S
C516        O526   1.272       .  A
C516        O517   1.276       .  A
C516        C654   1.437       .  S
O517       Al519   1.943       .  S
O518        C520   1.250       .  A
O518       Al519   1.852       .  S
Al519       O527   1.915       .  S
Al519       O529   1.933       .  S
Al519       O528   1.786       .  S
C520        O533   1.266       .  A
C520        C650   1.424       .  S
O521        C531   1.248       .  A
O521       Al523   1.914       .  S
O522        C535   1.273       .  A
O522       Al532   1.894       .  S
Al523       O536   1.954       .  S
Al523       O533   1.923       .  S
Al523       O528   1.777       .  S
O524        C531   1.249       .  A
O524       Al532   1.907       .  S
O525        C534   1.252       .  A
O525       Al532   1.911       .  S
O526       Al532   1.902       .  S
O527        C534   1.256       .  A
O528       Al532   1.785       .  S
O529        C530   1.263       .  A
C530        C667   1.439       .  S
C531        C665   1.446       .  S
C534        C646   1.441       .  S
C535        O536   1.281       .  A
C535        C656   1.439       .  S
O537        C552   1.282       .  A
O537       Al545   1.956       .  S
C538        O548   1.277       .  A
C538        O539   1.273       .  A
C538        C641   1.437       .  S
O539       Al541   1.902       .  S
O540        C542   1.249   1_455  A
O540       Al541   1.907       .  S
Al541       O549   1.911       .  S
Al541       O551   1.894       .  S
Al541       O550   1.784       .  S
C542        O555   1.248       .  A
C542        C639   1.446       .  S
O543        C553   1.266       .  A
O543       Al545   1.923       .  S
O544        C557   1.263       .  A
O544       Al554   1.934       .  S
Al545       O558   1.857       .  S
Al545       O555   1.914   1_455  S
Al545       O550   1.776       .  S
O546        C553   1.250       .  A
O546       Al554   1.853       .  S
O547        C556   1.256       .  A
O547       Al554   1.915       .  S
O548       Al554   1.943       .  S
O549        C556   1.251       .  A
O550       Al554   1.785       .  S
O551        C552   1.273       .  A
C552        C643   1.439       .  S
C553        C635   1.425       .  S
C556        C662   1.441       .  S
C557        O558   1.249       .  A
C557        C637   1.439       .  S
O559        C574   1.249       .  A
O559       Al567   1.857       .  S
C560        O570   1.272       .  A
C560        O561   1.276       .  A
C560        C629   1.438       .  S
O561       Al563   1.943       .  S
O562        C564   1.250       .  A
O562       Al563   1.853       .  S
Al563       O571   1.915       .  S
Al563       O573   1.934       .  S
Al563       O572   1.785       .  S
C564        O577   1.266   1_655  A
C564        C636   1.424       .  S
O565        C575   1.248       .  A
O565       Al567   1.913   1_455  S
O566        C579   1.273       .  A
O566       Al576   1.894       .  S
Al567       O580   1.955       .  S
Al567       O577   1.924   1_655  S
Al567       O572   1.776       .  S
O568        C575   1.249   1_655  A
O568       Al576   1.907       .  S
O569        C578   1.251       .  A
O569       Al576   1.911       .  S
O570       Al576   1.902       .  S
O571        C578   1.256       .  A
O572       Al576   1.784       .  S
O573        C574   1.263       .  A
C574        C633   1.439       .  S
C575        C632   1.446       .  S
C578        C651   1.441       .  S
C579        O580   1.281       .  A
C579        C628   1.439       .  S
O581        C596   1.249       .  A
O581       Al589   1.858       .  S
C582        O592   1.272       .  A
C582        O583   1.276       .  A
C582        C644   1.437       .  S
O583       Al585   1.942       .  S
O584        C586   1.250       .  A
O584       Al585   1.853       .  S
Al585       O593   1.915       .  S
Al585       O595   1.933       .  S
Al585       O594   1.786       .  S
C586        O599   1.266       .  A
C586        C625   1.424       .  S
O587        C597   1.248       .  A
O587       Al589   1.914   1_655  S
O588        C601   1.273       .  A
O588       Al598   1.895       .  S
Al589       O602   1.954       .  S
Al589       O599   1.924       .  S
Al589       O594   1.777       .  S
O590        C597   1.250   1_455  A
O590       Al598   1.908       .  S
O591        C600   1.252       .  A
O591       Al598   1.911       .  S
O592       Al598   1.902       .  S
O593        C600   1.256       .  A
O594       Al598   1.785       .  S
O595        C596   1.263       .  A
C597        C634   1.446       .  S
C600        C647   1.441       .  S
C601        O602   1.281       .  A
C601        C642   1.439       .  S
O603        C618   1.282       .  A
O603       Al611   1.956       .  S
C604        O614   1.277       .  A
C604        O605   1.273       .  A
C604        C627   1.437       .  S
O605       Al607   1.901       .  S
O606        C608   1.249   1_655  A
O606       Al607   1.907       .  S
Al607       O615   1.910       .  S
Al607       O617   1.894       .  S
Al607       O616   1.784       .  S
C608        O621   1.248       .  A
C608        C638   1.446       .  S
O609        C619   1.266   1_455  A
O609       Al611   1.923   1_455  S
O610        C623   1.264   1_545  A
Al611       O624   1.857       .  S
Al611       O621   1.914   1_655  S
Al611       O616   1.776       .  S
O612        C619   1.250       .  A
O612       Al620   1.854       .  S
O613        C622   1.256       .  A
O613       Al620   1.915       .  S
O614       Al620   1.943       .  S
O615        C622   1.251       .  A
O616       Al620   1.785       .  S
O617        C618   1.273       .  A
C618        C630   1.439       .  S
C619        C626   1.425       .  S
C622        C645   1.441       .  S
C623        C640   1.439       .  S
C627        C852   1.208       .  T
C628        C851   1.208       .  T
C629        C630   1.208       .  T
C631        C632   1.212       .  T
C633        C634   1.212       .  T
C635        C636   1.202   1_455  T
C637        C638   1.212       .  T
C639        C640   1.212       .  T
C641        C642   1.208       .  T
C643        C868   1.208       .  T
C644        C867   1.208   1_554  T
C645        C646   1.210       .  T
C647        C648   1.210       .  T
C649        C650   1.202       .  T
C651        C652   1.210       .  T
C653        C654   1.208       .  T
C655        C880   1.208   1_554  T
C656        C879   1.208       .  T
C657        C658   1.212       .  T
C659        C660   1.212       .  T
C661        C662   1.210       .  T
C665        C666   1.212       .  T
C667        C668   1.212       .  T
C669        C670   1.208       .  T
C671        C896   1.208       .  T
C672        C895   1.208       .  T
O673        C688   1.249       .  A
O673       Al681   1.858       .  S
C674        O684   1.272       .  A
C674        O675   1.276       .  A
C674        C895   1.437   1_556  S
O675       Al677   1.942       .  S
O676        C678   1.250       .  A
O676       Al677   1.853       .  S
Al677       O685   1.915       .  S
Al677       O687   1.934       .  S
Al677       O686   1.785       .  S
C678        O691   1.266       .  A
C678        C887   1.424       .  S
O679        C689   1.248       .  A
O679       Al681   1.914       .  S
O680        C693   1.273       .  A
O680       Al690   1.895       .  S
Al681       O694   1.954       .  S
Al681       O691   1.924       .  S
Al681       O686   1.777       .  S
O682        C689   1.250       .  A
O682       Al690   1.907       .  S
O683        C692   1.252       .  A
O683       Al690   1.911       .  S
O684       Al690   1.902       .  S
O685        C692   1.256       .  A
O686       Al690   1.785       .  S
O687        C688   1.263       .  A
C689        C892   1.446       .  S
C692        C885   1.441       .  S
C693        O694   1.281       .  A
C693        C893   1.439       .  S
O695        C710   1.282       .  A
O695       Al703   1.956       .  S
C696        O706   1.277       .  A
C696        O697   1.273       .  A
C696        C879   1.437       .  S
O697       Al699   1.901       .  S
O698        C700   1.249       .  A
O698       Al699   1.907       .  S
Al699       O707   1.911       .  S
Al699       O709   1.894       .  S
Al699       O708   1.784       .  S
C700        O713   1.248       .  A
C700        C882   1.446       .  S
O701        C711   1.266       .  A
O701       Al703   1.923       .  S
O702        C715   1.264   1_545  A
Al703       O716   1.857       .  S
Al703       O713   1.914       .  S
Al703       O708   1.776       .  S
O704        C711   1.250       .  A
O704       Al712   1.854       .  S
O705        C714   1.256       .  A
O705       Al712   1.915       .  S
O706       Al712   1.943       .  S
O707        C714   1.251       .  A
O708       Al712   1.785       .  S
O709        C710   1.273       .  A
C710        C877   1.439       .  S
C711        C888   1.425       .  S
C714        C876   1.441       .  S
C715        C883   1.439       .  S
O717        C732   1.282       .  A
O717       Al725   1.956       .  S
C718        O728   1.277       .  A
C718        O719   1.273       .  A
C718        C894   1.437       .  S
O719       Al721   1.902       .  S
O720        C722   1.249       .  A
O720       Al721   1.907       .  S
Al721       O729   1.911       .  S
Al721       O731   1.894       .  S
Al721       O730   1.784       .  S
C722        O735   1.248       .  A
C722        C884   1.446       .  S
O723        C733   1.266       .  A
O723       Al725   1.923       .  S
O724        C737   1.264       .  A
O724       Al734   1.934       .  S
Al725       O738   1.857       .  S
Al725       O735   1.914       .  S
Al725       O730   1.776       .  S
O726        C733   1.250       .  A
O726       Al734   1.853       .  S
O727        C736   1.256       .  A
O727       Al734   1.915       .  S
O728       Al734   1.943       .  S
O729        C736   1.251       .  A
O730       Al734   1.785       .  S
O731        C732   1.273       .  A
C732        C896   1.439       .  S
C733        C873   1.424       .  S
C736        C872   1.441       .  S
C737        O738   1.249       .  A
C737        C881   1.439       .  S
O739        C754   1.249       .  A
O739       Al747   1.858       .  S
C740        O750   1.272       .  A
C740        O741   1.276       .  A
C740        C878   1.437       .  S
O741       Al743   1.943       .  S
O742        C744   1.250       .  A
O742       Al743   1.852       .  S
Al743       O751   1.915       .  S
Al743       O753   1.933       .  S
Al743       O752   1.786       .  S
C744        O757   1.266       .  A
C744        C874   1.424       .  S
O745        C755   1.248       .  A
O745       Al747   1.914       .  S
O746        C759   1.273       .  A
O746       Al756   1.894       .  S
Al747       O760   1.954       .  S
Al747       O757   1.923       .  S
Al747       O752   1.777       .  S
O748        C755   1.249       .  A
O748       Al756   1.907       .  S
O749        C758   1.252       .  A
O749       Al756   1.911       .  S
O750       Al756   1.902       .  S
O751        C758   1.256       .  A
O752       Al756   1.785       .  S
O753        C754   1.263       .  A
C754        C891   1.439       .  S
C755        C889   1.446       .  S
C758        C870   1.441       .  S
C759        O760   1.281       .  A
C759        C880   1.439       .  S
O761        C776   1.282       .  A
O761       Al769   1.956       .  S
C762        O772   1.277       .  A
C762        O763   1.273       .  A
C762        C865   1.437       .  S
O763       Al765   1.902       .  S
O764        C766   1.249   1_455  A
O764       Al765   1.907       .  S
Al765       O773   1.911       .  S
Al765       O775   1.894       .  S
Al765       O774   1.784       .  S
C766        O779   1.248       .  A
C766        C863   1.446       .  S
O767        C777   1.266       .  A
O767       Al769   1.923       .  S
O768        C781   1.263       .  A
O768       Al778   1.934       .  S
Al769       O782   1.857       .  S
Al769       O779   1.914   1_455  S
Al769       O774   1.776       .  S
O770        C777   1.250       .  A
O770       Al778   1.853       .  S
O771        C780   1.256       .  A
O771       Al778   1.915       .  S
O772       Al778   1.943       .  S
O773        C780   1.251       .  A
O774       Al778   1.785       .  S
O775        C776   1.273       .  A
C776        C867   1.439       .  S
C777        C859   1.425       .  S
C780        C886   1.441       .  S
C781        O782   1.249       .  A
C781        C861   1.439       .  S
O783        C798   1.249       .  A
O783       Al791   1.857       .  S
C784        O794   1.272       .  A
C784        O785   1.276       .  A
C784        C853   1.438       .  S
O785       Al787   1.943       .  S
O786        C788   1.250       .  A
O786       Al787   1.853       .  S
Al787       O795   1.915       .  S
Al787       O797   1.934       .  S
Al787       O796   1.785       .  S
C788        O801   1.266   1_655  A
C788        C860   1.424       .  S
O789        C799   1.248       .  A
O789       Al791   1.913   1_455  S
O790        C803   1.273       .  A
O790       Al800   1.894       .  S
Al791       O804   1.955       .  S
Al791       O801   1.924   1_655  S
Al791       O796   1.776       .  S
O792        C799   1.249   1_655  A
O792       Al800   1.907       .  S
O793        C802   1.251       .  A
O793       Al800   1.911       .  S
O794       Al800   1.902       .  S
O795        C802   1.256       .  A
O796       Al800   1.784       .  S
O797        C798   1.263       .  A
C798        C857   1.439       .  S
C799        C856   1.446       .  S
C802        C875   1.441       .  S
C803        O804   1.281       .  A
C803        C852   1.439       .  S
O805        C820   1.249       .  A
O805       Al813   1.858       .  S
C806        O816   1.272       .  A
C806        O807   1.276       .  A
C806        C868   1.437       .  S
O807       Al809   1.942       .  S
O808        C810   1.250       .  A
O808       Al809   1.853       .  S
Al809       O817   1.915       .  S
Al809       O819   1.933       .  S
Al809       O818   1.786       .  S
C810        O823   1.266       .  A
C810        C849   1.424       .  S
O811        C821   1.248       .  A
O811       Al813   1.914   1_655  S
O812        C825   1.273       .  A
O812       Al822   1.895       .  S
Al813       O826   1.954       .  S
Al813       O823   1.924       .  S
Al813       O818   1.777       .  S
O814        C821   1.250   1_455  A
O814       Al822   1.908       .  S
O815        C824   1.252       .  A
O815       Al822   1.911       .  S
O816       Al822   1.902       .  S
O817        C824   1.256       .  A
O818       Al822   1.785       .  S
O819        C820   1.263       .  A
C821        C858   1.446       .  S
C824        C871   1.441       .  S
C825        O826   1.281       .  A
C825        C866   1.439       .  S
O827        C842   1.282       .  A
O827       Al835   1.956       .  S
C828        O838   1.277       .  A
C828        O829   1.273       .  A
C828        C851   1.437   1_556  S
O829       Al831   1.901       .  S
O830        C832   1.249   1_655  A
O830       Al831   1.907       .  S
Al831       O839   1.910       .  S
Al831       O841   1.894       .  S
Al831       O840   1.784       .  S
C832        O845   1.248       .  A
C832        C862   1.446       .  S
O833        C843   1.266   1_455  A
O833       Al835   1.923   1_455  S
O834        C847   1.264   1_545  A
Al835       O848   1.857       .  S
Al835       O845   1.914   1_655  S
Al835       O840   1.776       .  S
O836        C843   1.250       .  A
O836       Al844   1.854       .  S
O837        C846   1.256       .  A
O837       Al844   1.915       .  S
O838       Al844   1.943       .  S
O839        C846   1.251       .  A
O840       Al844   1.785       .  S
O841        C842   1.273       .  A
C842        C854   1.439       .  S
C843        C850   1.425       .  S
C846        C869   1.441       .  S
C847        C864   1.439       .  S
C853        C854   1.208       .  T
C855        C856   1.212       .  T
C857        C858   1.212       .  T
C859        C860   1.202   1_455  T
C861        C862   1.212       .  T
C863        C864   1.212       .  T
C865        C866   1.208       .  T
C869        C870   1.210       .  T
C871        C872   1.210       .  T
C873        C874   1.202       .  T
C875        C876   1.210       .  T
C877        C878   1.208       .  T
C881        C882   1.212       .  T
C883        C884   1.212       .  T
C885        C886   1.210       .  T
C889        C890   1.212       .  T
C891        C892   1.212       .  T
C893        C894   1.208       .  T
