geometry optimzed in LAMMPS
_audit_creation_date              2020-12-01 
_audit_creation_method            'lammps2cif' 
_symmetry_space_group_name_H-M    'P1' 
_symmetry_Int_Tables_number       1 
_symmetry_cell_setting            triclinic 
loop_ 
_symmetry_equiv_pos_as_xyz 
  x,y,z 
_cell_length_a                    42.40453633 
_cell_length_b                    33.7771918414656 
_cell_length_c                    40.091178788389385 
_cell_angle_alpha                 89.97207420798749 
_cell_angle_beta                  99.37832931572851 
_cell_angle_gamma                 89.8566399646502 
loop_ 
_atom_site_label 
_atom_site_type_symbol 
_atom_site_fract_x 
_atom_site_fract_y 
_atom_site_fract_z 
_atom_site_charge 
O1          O  0.08506420  0.63609057  0.36068810    -0.86800
O2          O  0.13443690  0.58585322  0.38424907    -0.83900
C3          C  0.12092863  0.55213234  0.38401009     0.96600
O4          O  0.10898067  0.53634557  0.35662488    -0.83900
O5          O  0.08400340  0.52295418  0.29104043    -0.86600
C6          C  0.05600061  0.53712755  0.28830274     1.01100
O7          O  0.05215354  0.57232686  0.29642927    -0.79300
O8          O  0.06102557  0.65017149  0.30975473    -0.79500
C9          C  0.06058404  0.64796438  0.34125189     1.01100
O10         O  0.12307793  0.67700823  0.31593254    -0.86800
O11         O  0.17131951  0.62238908  0.33777222    -0.83900
C12         C  0.18566411  0.58973558  0.34340577     0.96600
O13         O  0.16999127  0.55760786  0.34001878    -0.83900
O14         O  0.14183601  0.55208380  0.27247626    -0.86500
C15         C  0.12082578  0.55434379  0.24646035     1.01100
O16         O  0.09514751  0.57359771  0.24736623    -0.79400
O17         O  0.10930839  0.64934235  0.26615725    -0.79500
C18         C  0.11970116  0.67866054  0.28364197     1.01100
Cr19       Cr  0.12744122  0.62845016  0.34731090     1.93700
Cr20       Cr  0.12553244  0.54586760  0.31524802     1.93200
Cr21       Cr  0.08163447  0.61057879  0.28214059     1.39100
O22         O  0.11208101  0.59533144  0.31467127    -1.24600
O23         O  0.42018854  0.63565797  0.38079555    -0.86800
O24         O  0.37105902  0.58514981  0.35857581    -0.83900
C25         C  0.38486796  0.55150923  0.35879892     0.96600
O26         O  0.39702341  0.53568425  0.38614961    -0.83900
O27         O  0.42247632  0.52292105  0.45170991    -0.86600
C28         C  0.45044166  0.53682411  0.45390093     1.01100
O29         O  0.45420659  0.57175081  0.44503698    -0.79300
O30         O  0.44528712  0.64967318  0.43126450    -0.79500
C31         C  0.44499631  0.64745495  0.39963367     1.01100
O32         O  0.38281018  0.67696095  0.42623194    -0.86800
O33         O  0.33471606  0.62209968  0.40569278    -0.83900
C34         C  0.32044482  0.58949932  0.40011861     0.96600
O35         O  0.33626855  0.55740481  0.40318737    -0.83900
O36         O  0.36505154  0.55310253  0.47054777    -0.86500
C37         C  0.38629819  0.55520613  0.99635536     1.01100
O38         O  0.41205180  0.57402604  0.99506849    -0.79400
O39         O  0.39804864  0.64980565  0.47604638    -0.79500
C40         C  0.38692861  0.67889043  0.45855090     1.01100
Cr41       Cr  0.37825007  0.62812512  0.39515282     1.93700
Cr42       Cr  0.38088100  0.54586634  0.42767984     1.93200
Cr43       Cr  0.42518096  0.61052521  0.45967585     1.39100
O44         O  0.39427657  0.59524017  0.42772601    -1.24600
O45         O  0.38302215  0.32456081  0.17609689    -0.86800
O46         O  0.33479123  0.37938448  0.15562741    -0.83900
C47         C  0.32033480  0.41193072  0.15000169     0.96600
O48         O  0.33597574  0.44407309  0.15305994    -0.83900
O49         O  0.36464085  0.44832569  0.22057095    -0.86600
C50         C  0.38590347  0.44613815  0.24638404     1.01100
O51         O  0.41171821  0.42730319  0.24507696    -0.79300
O52         O  0.39822317  0.35157288  0.22591269    -0.79500
C53         C  0.38717469  0.32255407  0.20840513     1.01100
O54         O  0.42024566  0.36592817  0.13075474    -0.86800
O55         O  0.37106020  0.41652658  0.10857390    -0.83900
C56         C  0.38481206  0.45011669  0.10885875     0.96600
O57         O  0.39670262  0.46598541  0.13623966    -0.83900
O58         O  0.42198002  0.47876750  0.20193215    -0.86500
C59         C  0.45004183  0.46492879  0.20421954     1.01100
O60         O  0.45398890  0.43005514  0.19524595    -0.79400
O61         O  0.44544617  0.35207314  0.18127692    -0.79500
C62         C  0.44507497  0.35412699  0.14963294     1.01100
Cr63       Cr  0.37832416  0.37347894  0.14510476     1.93700
Cr64       Cr  0.38051235  0.45569122  0.17771358     1.93200
Cr65       Cr  0.42512737  0.39103991  0.20968187     1.39100
O66         O  0.39417891  0.40633317  0.17771470    -1.24600
O67         O  0.12308505  0.32376847  0.06571717    -0.86800
O68         O  0.17130978  0.37821594  0.08779861    -0.83900
C69         C  0.18553743  0.41084213  0.09354952     0.96600
O70         O  0.16976352  0.44296914  0.09028684    -0.83900
O71         O  0.14190289  0.44878488  0.02268845    -0.86600
C72         C  0.12092317  0.44665208  0.49663731     1.01100
O73         O  0.09521647  0.42757215  0.49746469    -0.79300
O74         O  0.10858317  0.35139323  0.01594736    -0.79500
C75         C  0.11920213  0.32202940  0.03338842     1.01100
O76         O  0.08502264  0.36471332  0.11057992    -0.86800
O77         O  0.13423234  0.41478828  0.13422573    -0.83900
C78         C  0.12067437  0.44858486  0.13398564     0.96600
O79         O  0.10863365  0.46438387  0.10659867    -0.83900
O80         O  0.08421210  0.47846464  0.04099631    -0.86500
C81         C  0.05620460  0.46464496  0.03835249     1.01100
O82         O  0.05226840  0.42953659  0.04662571    -0.79400
O83         O  0.06062797  0.35146469  0.05965211    -0.79500
C84         C  0.06042480  0.35329192  0.09118736     1.01100
Cr85       Cr  0.12737326  0.37225722  0.09721288     1.93700
Cr86       Cr  0.12545529  0.45498310  0.06535474     1.93200
Cr87       Cr  0.08140681  0.39077980  0.03213903     1.39100
O88         O  0.11200384  0.40555979  0.06461300    -1.24600
O89         O  0.37345303  0.82386003  0.06604344    -0.86800
O90         O  0.42197175  0.87810316  0.08804022    -0.83900
C91         C  0.43630079  0.91069316  0.09360840     0.96600
O92         O  0.42064014  0.94292194  0.09004552    -0.83900
O93         O  0.39214497  0.94880853  0.02256961    -0.86600
C94         C  0.37091900  0.94697935  0.49671171     1.01100
O95         O  0.34528663  0.92780952  0.49775480    -0.79300
O96         O  0.35911726  0.85160849  0.01628863    -0.79500
C97         C  0.36950515  0.82212643  0.03370301     1.01100
O98         O  0.33576479  0.86502434  0.11113606    -0.86800
O99         O  0.38519457  0.91492851  0.13458169    -0.83900
C100        C  0.37179854  0.94882637  0.13435676     0.96600
O101        O  0.35977643  0.96463939  0.10697208    -0.83900
O102        O  0.33461191  0.97839770  0.04155870    -0.86500
C103        C  0.30663913  0.96443069  0.03907458     1.01100
O104        O  0.30285982  0.92935069  0.04748529    -0.79400
O105        O  0.31137253  0.85131729  0.06032453    -0.79500
C106        C  0.31120092  0.85328409  0.09187207     1.01100
Cr107      Cr  0.37805893  0.87237090  0.09757199     1.93700
Cr108      Cr  0.37613594  0.95503918  0.06550497     1.93200
Cr109      Cr  0.33191214  0.89080758  0.03265083     1.39100
O110        O  0.36265274  0.90564595  0.06496054    -1.24600
O111        O  0.13382682  0.82381284  0.17662621    -0.86800
O112        O  0.08546600  0.87876916  0.15621608    -0.83900
C113        C  0.07107230  0.91138460  0.15060274     0.96600
O114        O  0.08680377  0.94346850  0.15364769    -0.83900
O115        O  0.11525890  0.94763092  0.22117593    -0.86600
C116        C  0.13634372  0.94522699  0.24712302     1.01100
O117        O  0.16217249  0.92637014  0.24593950    -0.79300
O118        O  0.14849347  0.85077178  0.22653742    -0.79500
C119        C  0.13774729  0.82171724  0.20891378     1.01100
O120        O  0.17115045  0.86539239  0.13164413    -0.86800
O121        O  0.12182604  0.91602792  0.10930735    -0.83900
C122        C  0.13558750  0.94961473  0.10957315     0.96600
O123        O  0.14766681  0.96536059  0.13694887    -0.83900
O124        O  0.17279070  0.97781238  0.20277236    -0.86500
C125        C  0.20083464  0.96388586  0.20516396     1.01100
O126        O  0.20478426  0.92893564  0.19642543    -0.79400
O127        O  0.19610966  0.85116654  0.18220819    -0.79500
C128        C  0.19590850  0.85343906  0.15059053     1.01100
Cr129      Cr  0.12910289  0.87285854  0.14578277     1.93700
Cr130      Cr  0.13132894  0.95498416  0.17841602     1.93200
Cr131      Cr  0.17567090  0.89011117  0.21058133     1.39100
O132        O  0.14490750  0.90560174  0.17846910    -1.24600
O133        O  0.17054647  0.13484789  0.38086872    -0.86800
O134        O  0.12127892  0.08425478  0.35915203    -0.83900
C135        C  0.13488645  0.05045880  0.35957101     0.96600
O136        O  0.14693075  0.03473717  0.38700255    -0.83900
O137        O  0.17265115  0.02236702  0.45251219    -0.86600
C138        C  0.20066930  0.03602833  0.45438877     1.01100
O139        O  0.20451189  0.07083102  0.44522864    -0.79300
O140        O  0.19587383  0.14888243  0.43124738    -0.79500
C141        C  0.19534392  0.14688728  0.39957988     1.01100
O142        O  0.13353161  0.17660170  0.42633137    -0.86800
O143        O  0.08515162  0.12193965  0.40619370    -0.83900
C144        C  0.07072063  0.08941285  0.40089786     0.90200
O145        O  0.08641701  0.05722008  0.40414381    -0.83900
O146        O  0.11553068  0.05331642  0.47160648    -0.86500
C147        C  0.13696528  0.05532348  0.99727962     1.01100
O148        O  0.16277626  0.07388886  0.99566567    -0.79400
O149        O  0.14906418  0.14971765  0.47622325    -0.79500
C150        C  0.13801264  0.17878882  0.45865554     1.01100
Cr151      Cr  0.12868361  0.12753257  0.39548145     1.93700
Cr152      Cr  0.13105974  0.04551731  0.42857144     1.93200
Cr153      Cr  0.17582322  0.11001916  0.45991029     1.39100
O154        O  0.14469711  0.09477624  0.42819836    -1.24600
O155        O  0.33501606  0.13706465  0.36046449    -0.86800
O156        O  0.38433446  0.08704540  0.38461640    -0.83900
C157        C  0.37074820  0.05337544  0.38451006     0.96600
O158        O  0.35888581  0.03743137  0.35716817    -0.83900
O159        O  0.33466331  0.02304751  0.29151170    -0.86600
C160        C  0.30661635  0.03702711  0.28858818     1.01100
O161        O  0.30259869  0.07223603  0.29654897    -0.79300
O162        O  0.31080526  0.15024838  0.30939831    -0.79500
C163        C  0.31048375  0.14858550  0.34093042     1.01100
O164        O  0.37304523  0.17774967  0.31572605    -0.86800
O165        O  0.42152891  0.12328842  0.33829296    -0.83900
C166        C  0.43583981  0.09064117  0.34425212     0.96600
O167        O  0.42016094  0.05851463  0.34093708    -0.83900
O168        O  0.39247191  0.05209533  0.27325975    -0.86500
C169        C  0.37162118  0.05434604  0.24708803     1.01100
O170        O  0.34590551  0.07366257  0.24772128    -0.79400
O171        O  0.35911768  0.14989458  0.26603637    -0.79500
C172        C  0.36926356  0.17941754  0.28340600     1.01100
Cr173      Cr  0.37746720  0.12936977  0.34738375     1.93700
Cr174      Cr  0.37586808  0.04645089  0.31592192     1.93200
Cr175      Cr  0.33185429  0.11071970  0.28215739     1.39100
O176        O  0.36233627  0.09594606  0.31485309    -1.24600
C177        C  0.22280534  0.15581562  0.34894362    -0.14800
C178        C  0.22423869  0.15630436  0.38432758     0.07300
C179        C  0.25425502  0.16045435  0.40479517    -0.14800
C180        C  0.28225392  0.16086283  0.39041450    -0.14800
C181        C  0.28094244  0.15746833  0.35518954     0.07300
C182        C  0.25081437  0.15655224  0.33454222    -0.14800
H183        H  0.20008615  0.15273426  0.33236725     0.11300
H184        H  0.25629216  0.16088557  0.43207343     0.11300
H185        H  0.30507535  0.16173384  0.40707965     0.11300
H186        H  0.24891259  0.15372092  0.30738352     0.11300
C187        C  0.48764604  0.05428047  0.36243089    -0.14800
C188        C  0.47055422  0.09014030  0.35790660     0.07300
C189        C  0.48644699  0.12545927  0.36881285    -0.14800
C190        C  0.01863906  0.12499965  0.38370730    -0.14800
C191        C  0.03585240  0.08922863  0.38797621     0.07300
C192        C  0.01995511  0.05383670  0.37720904    -0.14800
H193        H  0.47605139  0.02651945  0.35452200     0.11300
H194        H  0.47390857  0.15354377  0.36617813     0.11300
H195        H  0.03013573  0.15282491  0.39157429     0.11300
H196        H  0.03258369  0.02581554  0.37979293     0.11300
C197        C  0.25917689  0.96957085  0.22532419    -0.14800
C198        C  0.22815694  0.98482614  0.22423327     0.07300
C199        C  0.22293441  0.01557530  0.24617608    -0.14800
C200        C  0.24831827  0.03083859  0.26883959    -0.14800
C201        C  0.27935134  0.01569831  0.26984731     0.07300
C202        C  0.28457628  0.98485660  0.24798855    -0.14800
H203        H  0.26372673  0.94541228  0.20896920     0.11300
H204        H  0.19911850  0.02708509  0.24651534     0.11300
H205        H  0.24376381  0.05501256  0.28518174     0.11300
H206        H  0.30841163  0.97340678  0.24763226     0.11300
C207        C  0.15889175  0.96998682  0.30427449    -0.14800
C208        C  0.13391407  0.97039091  0.27670278     0.07300
C209        C  0.10971989  0.99935681  0.27549037    -0.14800
C210        C  0.11057660  0.02727262  0.30151855    -0.14800
C211        C  0.13559931  0.02646199  0.32905677     0.07300
C212        C  0.15975590  0.99767447  0.33000160    -0.14800
H213        H  0.17821692  0.94871212  0.30572334     0.11300
H214        H  0.09047182  0.00090444  0.25415821     0.11300
H215        H  0.09138425  0.04864991  0.30058536     0.11300
H216        H  0.17931568  0.99623570  0.35105270     0.11300
C217        C  0.16103972  0.02787498  0.05320827    -0.14800
C218        C  0.13490510  0.02989940  0.02686907     0.07300
C219        C  0.10948606  0.00299732  0.02670575    -0.14800
C220        C  0.11022080  0.97484239  0.05256475    -0.14800
C221        C  0.13635147  0.97331947  0.07890833     0.07300
C222        C  0.16174447  0.99996692  0.07882196    -0.14800
H223        H  0.18131976  0.04742599  0.05378891     0.11300
H224        H  0.08926551  0.00332816  0.50636283     0.11300
H225        H  0.09006990  0.95522341  0.05254483     0.11300
H226        H  0.18210914  0.99958559  0.09902229     0.11300
C227        C  0.28433579  0.01596688  0.49789270    -0.14800
C228        C  0.27924487  0.98534634  0.01999949     0.07300
C229        C  0.24836146  0.96983198  0.01878491    -0.14800
C230        C  0.22298659  0.98459439  0.99572211    -0.14800
C231        C  0.22807302  0.01522038  0.47360581     0.07300
C232        C  0.25896109  0.03072439  0.47482249    -0.14800
H233        H  0.30807239  0.02765600  0.49766344     0.11300
H234        H  0.24392812  0.94575680  0.03527060     0.11300
H235        H  0.19926474  0.97285776  0.99592888     0.11300
H236        H  0.26340901  0.05476958  0.45831554     0.11300
C237        C  0.39591974  0.00329021  0.46926683    -0.14800
C238        C  0.37282989  0.97301162  0.46747653     0.07300
C239        C  0.34824723  0.97180091  0.43955426    -0.14800
C240        C  0.34682351  0.99973468  0.41392538    -0.14800
C241        C  0.37007727  0.02957665  0.41522118     0.07300
C242        C  0.39455126  0.03143060  0.44327272    -0.14800
H243        H  0.41473724  0.00556969  0.49094420     0.11300
H244        H  0.32970266  0.94954814  0.43767320     0.11300
H245        H  0.32763914  0.99749334  0.39256954     0.11300
H246        H  0.41301750  0.05370637  0.44459066     0.11300
C247        C  0.39496941  0.96960150  0.19370359    -0.14800
C248        C  0.37136977  0.97296609  0.16495195     0.07300
C249        C  0.34907099  0.00415137  0.16312269    -0.14800
C250        C  0.35048066  0.03172137  0.18897441    -0.14800
C251        C  0.37404383  0.02881126  0.21770555     0.07300
C252        C  0.39629692  0.99738825  0.21995363    -0.14800
H253        H  0.41270570  0.94625619  0.19549830     0.11300
H254        H  0.33054579  0.00764410  0.14126840     0.11300
H255        H  0.33262890  0.05497478  0.18666600     0.11300
H256        H  0.41430285  0.99384989  0.24223181     0.11300
C257        C  0.25167122  0.84414961  0.08580152    -0.14800
C258        C  0.28182185  0.84439215  0.10642022     0.07300
C259        C  0.28321168  0.84184999  0.14172358    -0.14800
C260        C  0.25520132  0.84176522  0.15612675    -0.14800
C261        C  0.22508643  0.84455865  0.13559344     0.07300
C262        C  0.22366439  0.84439102  0.10021052    -0.14800
H263        H  0.24968359  0.84632732  0.05858909     0.11300
H264        H  0.30604645  0.84193423  0.15838387     0.11300
H265        H  0.25723535  0.84199005  0.18340734     0.11300
H266        H  0.20087580  0.84649234  0.08358314     0.11300
C267        C  0.48671408  0.87581556  0.11911793    -0.14800
C268        C  0.47101828  0.91102087  0.10720154     0.07300
C269        C  0.48827051  0.94668655  0.11080105    -0.14800
C270        C  0.02054511  0.94704068  0.12570184    -0.14800
C271        C  0.03623892  0.91176174  0.13750958     0.07300
C272        C  0.01886731  0.87619477  0.13413601    -0.14800
H273        H  0.47403424  0.84791135  0.11723689     0.11300
H274        H  0.47682303  0.97435352  0.10208968     0.11300
H275        H  0.03331186  0.97488797  0.12756177     0.11300
H276        H  0.03020552  0.84845956  0.14284125     0.11300
C277        C  0.13388549  0.24980761  0.03149263    -0.14800
C278        C  0.12499900  0.28538874  0.01466651     0.07300
C279        C  0.11988834  0.28559838  0.47887552    -0.14800
C280        C  0.12349657  0.25114188  0.46042570    -0.14800
C281        C  0.13234180  0.21555054  0.47726837     0.07300
C282        C  0.13750357  0.21537456  0.01305540    -0.14800
H283        H  0.13779075  0.24847444  0.05884273     0.11300
H284        H  0.11288746  0.31252276  0.46490955     0.11300
H285        H  0.11959131  0.25245037  0.43307613     0.11300
H286        H  0.14448990  0.18846367  0.02704611     0.11300
C287        C  0.38548661  0.28648872  0.26281760    -0.14800
C288        C  0.38122120  0.28598856  0.22706389     0.07300
C289        C  0.37330192  0.25017392  0.21032573    -0.14800
C290        C  0.37003176  0.21570769  0.22886026    -0.14800
C291        C  0.37454874  0.21615005  0.26462684     0.07300
C292        C  0.38222257  0.25203346  0.28134499    -0.14800
H293        H  0.39162311  0.31363066  0.27670281     0.11300
H294        H  0.37003756  0.24865733  0.18300049     0.11300
H295        H  0.36387274  0.18856332  0.21498545     0.11300
H296        H  0.38550960  0.25356027  0.30866896     0.11300
C297        C  0.26878557  0.37621017  0.13135298    -0.14800
C298        C  0.28552722  0.41210827  0.13692251     0.07300
C299        C  0.26921924  0.44768709  0.12738045    -0.14800
C300        C  0.23691623  0.44731322  0.11263485    -0.14800
C301        C  0.22027003  0.41134402  0.10692743     0.07300
C302        C  0.23661304  0.37582600  0.11648290    -0.14800
H303        H  0.28063326  0.34823424  0.13817796     0.11300
H304        H  0.28148701  0.47581897  0.13101139     0.11300
H305        H  0.22495561  0.47521985  0.10579031     0.11300
H306        H  0.22444684  0.34763061  0.11283080     0.11300
C307        C  0.47279146  0.34545834  0.09918836    -0.14800
C308        C  0.47416506  0.34515717  0.13456328     0.07300
C309        C  0.00421127  0.34174816  0.15513081    -0.14800
C310        C  0.03224903  0.34165679  0.14081427    -0.14800
C311        C  0.03094499  0.34461871  0.10556020     0.07300
C312        C  0.50083332  0.34503541  0.08485913    -0.14800
H313        H  0.45005223  0.34806564  0.08254022     0.11300
H314        H  0.00619435  0.34158898  0.18240824     0.11300
H315        H  0.05505949  0.34124928  0.15752251     0.11300
H316        H  0.49893146  0.34758435  0.05767431     0.11300
C317        C  0.37432694  0.75169937  0.46061986    -0.14800
C318        C  0.38096532  0.71547296  0.47722314     0.07300
C319        C  0.38420895  0.71459396  0.51291585    -0.14800
C320        C  0.38120542  0.74907750  0.03152205    -0.14800
C321        C  0.37479600  0.78535938  0.01493842     0.07300
C322        C  0.37131312  0.78618399  0.47922620    -0.14800
H323        H  0.37193789  0.75352204  0.43335808     0.11300
H324        H  0.38934607  0.68711796  0.02668732     0.11300
H325        H  0.38362547  0.74725613  0.05878760     0.11300
H326        H  0.36617794  0.81365197  0.46545495     0.11300
C327        C  0.36046028  0.52846374  0.30074442    -0.14800
C328        C  0.38561800  0.52776774  0.32815474     0.07300
C329        C  0.40990098  0.49919157  0.32890225    -0.14800
C330        C  0.40894299  0.47145422  0.30320190    -0.14800
C331        C  0.38373470  0.47159116  0.27585566     0.07300
C332        C  0.35951417  0.50050428  0.27473529    -0.14800
H333        H  0.34119547  0.54971149  0.29994403     0.11300
H334        H  0.42958360  0.49788164  0.34982948     0.11300
H335        H  0.42832649  0.45028482  0.30453822     0.11300
H336        H  0.34012382  0.50190278  0.25353731     0.11300
C337        C  0.36003520  0.50076839  0.02450794    -0.14800
C338        C  0.38411295  0.52974006  0.02580291     0.07300
C339        C  0.40911545  0.52998462  0.05334433    -0.14800
C340        C  0.40997109  0.50232141  0.07911191    -0.14800
C341        C  0.38578727  0.47373685  0.07820657     0.07300
C342        C  0.36088838  0.47287856  0.05056131    -0.14800
H343        H  0.34082293  0.49927935  0.00314788     0.11300
H344        H  0.42838761  0.55120766  0.05480053     0.11300
H345        H  0.42947087  0.50371289  0.10021912     0.11300
H346        H  0.34172531  0.45158116  0.04961768     0.11300
C347        C  0.47260294  0.48575418  0.49554082    -0.14800
C348        C  0.47780332  0.51604585  0.47316627     0.07300
C349        C  0.50876061  0.53122974  0.47414572    -0.14800
C350        C  0.03413640  0.51630122  0.99713807    -0.14800
C351        C  0.02893063  0.48588882  0.01941290     0.07300
C352        C  0.99795159  0.47087210  0.01854281    -0.14800
H353        H  0.44881230  0.47435479  0.49598027     0.11300
H354        H  0.51326525  0.55506939  0.45746521     0.11300
H355        H  0.05794302  0.52763558  0.99669202     0.11300
H356        H  0.99342568  0.44703522  0.03522599     0.11300
C357        C  0.13114974  0.75156489  0.28156598    -0.14800
C358        C  0.12558268  0.71521520  0.26501341     0.07300
C359        C  0.12329237  0.71419019  0.22941438    -0.14800
C360        C  0.12639131  0.74867248  0.21084941    -0.14800
C361        C  0.13194171  0.78503103  0.22742169     0.07300
C362        C  0.13424783  0.78602102  0.26301509    -0.14800
H363        H  0.13269093  0.75348708  0.30874483     0.11300
H364        H  0.11892381  0.68660535  0.21571263     0.11300
H365        H  0.12484984  0.74677683  0.18367183     0.11300
H366        H  0.13859338  0.81359785  0.27674413     0.11300
C367        C  0.14425493  0.53106957  0.44316014    -0.14800
C368        C  0.12037632  0.52818506  0.41463931     0.07300
C369        C  0.09776089  0.49754943  0.41301966    -0.14800
C370        C  0.09921216  0.46990284  0.43883385    -0.14800
C371        C  0.12314483  0.47223243  0.46727442     0.07300
C372        C  0.14563375  0.50321738  0.46935673    -0.14800
H373        H  0.16220950  0.55401864  0.44476481     0.11300
H374        H  0.07901291  0.49451333  0.39133223     0.11300
H375        H  0.08114320  0.44703617  0.43671326     0.11300
H376        H  0.16390338  0.50633125  0.49144057     0.11300
C377        C  0.09894141  0.53101569  0.18874320    -0.14800
C378        C  0.12303902  0.52879093  0.21705985     0.07300
C379        C  0.14575958  0.49792976  0.21900910    -0.14800
C380        C  0.14436161  0.47000247  0.19288832    -0.14800
C381        C  0.12023386  0.47267157  0.16455985     0.07300
C382        C  0.09747928  0.50329664  0.16299634    -0.14800
H383        H  0.08073270  0.55382463  0.18669335     0.11300
H384        H  0.16421677  0.49494182  0.24095962     0.11300
H385        H  0.16247238  0.44713398  0.19440865     0.11300
H386        H  0.07858358  0.50623474  0.14141705     0.11300
C387        C  0.23675269  0.62505302  0.36513493    -0.14800
C388        C  0.22041456  0.58932598  0.35682293     0.07300
C389        C  0.23707045  0.55343792  0.36387001    -0.14800
C390        C  0.26935864  0.55334799  0.37871892    -0.14800
C391        C  0.28564148  0.58914434  0.38701774     0.07300
C392        C  0.26889537  0.62495948  0.38010790    -0.14800
H393        H  0.22460937  0.65323261  0.36039874     0.11300
H394        H  0.22512038  0.52538744  0.35804872     0.11300
H395        H  0.28162866  0.52524929  0.38343383     0.11300
H396        H  0.28072798  0.65308221  0.38590608     0.11300
C397        C  0.50088463  0.65567680  0.33482238    -0.14800
C398        C  0.03098616  0.65668669  0.35551369     0.07300
C399        C  0.03221049  0.66020593  0.39072753    -0.14800
C400        C  0.00413680  0.66015205  0.40503618    -0.14800
C401        C  0.47411942  0.65621999  0.38450770     0.07300
C402        C  0.47282187  0.65527856  0.34914159    -0.14800
H403        H  0.49903500  0.65263461  0.30768394     0.11300
H404        H  0.05500699  0.66106023  0.40742774     0.11300
H405        H  0.00609143  0.66080355  0.43230220     0.11300
H406        H  0.45013240  0.65222011  0.33250338     0.11300
C407        C  0.99761813  0.53142711  0.26838930    -0.14800
C408        C  0.02860855  0.51608692  0.26944763     0.07300
C409        C  0.03374399  0.48533685  0.24747363    -0.14800
C410        C  0.50834642  0.47034146  0.22464690    -0.14800
C411        C  0.47736809  0.48573125  0.22350510     0.07300
C412        C  0.47220208  0.51639284  0.24557871    -0.14800
H413        H  0.99312913  0.55555423  0.28480164     0.11300
H414        H  0.05753236  0.47374167  0.24713309     0.11300
H415        H  0.51287296  0.44626162  0.20819712     0.11300
H416        H  0.44841669  0.52801107  0.24588694     0.11300
O417        O  0.08506442  0.63609018  0.86068729    -0.86800
O418        O  0.13443751  0.58585346  0.88424871    -0.83900
C419        C  0.12092917  0.55213274  0.88401003     0.96600
O420        O  0.10898063  0.53634617  0.85662487    -0.83900
O421        O  0.08400342  0.52295418  0.79104042    -0.86600
C422        C  0.05600067  0.53712795  0.78830218     1.01100
O423        O  0.05215366  0.57232756  0.79642802    -0.79300
O424        O  0.06102639  0.65017179  0.80975384    -0.79500
C425        C  0.06058442  0.64796428  0.84125077     1.01100
O426        O  0.12307806  0.67700845  0.81593220    -0.86800
O427        O  0.17131990  0.62238923  0.83777173    -0.83900
C428        C  0.18566449  0.58973578  0.84340514     0.96600
O429        O  0.16999149  0.55760795  0.84001848    -0.83900
O430        O  0.14183642  0.55208288  0.77247618    -0.86500
C431        C  0.12082636  0.55434319  0.74646022     1.01100
O432        O  0.09514829  0.57359771  0.74736582    -0.79400
O433        O  0.10930996  0.64934210  0.76615694    -0.79500
C434        C  0.11970207  0.67866059  0.78364170     1.01100
Cr435      Cr  0.12744153  0.62845025  0.84731044     1.93700
Cr436      Cr  0.12553258  0.54586756  0.81524791     1.93200
Cr437      Cr  0.08163522  0.61057903  0.78213986     1.39100
O438        O  0.11208135  0.59533147  0.81467083    -1.24600
O439        O  0.42018901  0.63565874  0.88079572    -0.86800
O440        O  0.37105977  0.58515049  0.85857541    -0.83900
C441        C  0.38486890  0.55151004  0.85879844     0.96600
O442        O  0.39702432  0.53568492  0.88614912    -0.83900
O443        O  0.42247662  0.52292118  0.95170960    -0.86600
C444        C  0.45044199  0.53682423  0.95390098     1.01100
O445        O  0.45420695  0.57175077  0.94503669    -0.79300
O446        O  0.44528775  0.64967323  0.93126489    -0.79500
C447        C  0.44499686  0.64745523  0.89963400     1.01100
O448        O  0.38281057  0.67696108  0.92623240    -0.86800
O449        O  0.33471654  0.62209969  0.90569243    -0.83900
C450        C  0.32044539  0.58949918  0.90011752     0.96600
O451        O  0.33626916  0.55740487  0.90318635    -0.83900
O452        O  0.36505177  0.55310232  0.97054710    -0.86500
C453        C  0.38629810  0.55520618  0.49635583     1.01100
O454        O  0.41205162  0.57402621  0.49506880    -0.79400
O455        O  0.39804941  0.64980553  0.97604670    -0.79500
C456        C  0.38692947  0.67889047  0.95855145     1.01100
Cr457      Cr  0.37825052  0.62812559  0.89515272     1.93700
Cr458      Cr  0.38088148  0.54586654  0.92767924     1.93200
Cr459      Cr  0.42518139  0.61052515  0.95967578     1.39100
O460        O  0.39427696  0.59524046  0.92772575    -1.24600
O461        O  0.38302217  0.32456053  0.67609702    -0.86800
O462        O  0.33479139  0.37938421  0.65562752    -0.83900
C463        C  0.32033484  0.41193039  0.65000187     0.96600
O464        O  0.33597575  0.44407271  0.65306011    -0.83900
O465        O  0.36464098  0.44832512  0.72057133    -0.86600
C466        C  0.38590367  0.44613767  0.74638434     1.01100
O467        O  0.41171849  0.42730271  0.74507721    -0.79300
O468        O  0.39822377  0.35157232  0.72591281    -0.79500
C469        C  0.38717505  0.32255364  0.70840525     1.01100
O470        O  0.42024594  0.36592747  0.63075487    -0.86800
O471        O  0.37106066  0.41652637  0.60857405    -0.83900
C472        C  0.38481248  0.45011656  0.60885909     0.96600
O473        O  0.39670275  0.46598523  0.63624016    -0.83900
O474        O  0.42198007  0.47876708  0.70193257    -0.86500
C475        C  0.45004190  0.46492829  0.70421971     1.01100
O476        O  0.45398883  0.43005488  0.69524582    -0.79400
O477        O  0.44544650  0.35207281  0.68127697    -0.79500
C478        C  0.44507523  0.35412640  0.64963296     1.01100
Cr479      Cr  0.37832436  0.37347860  0.64510487     1.93700
Cr480      Cr  0.38051242  0.45569080  0.67771392     1.93200
Cr481      Cr  0.42512761  0.39103952  0.70968192     1.39100
O482        O  0.39417902  0.40633275  0.67771490    -1.24600
O483        O  0.12308484  0.32376771  0.56571772    -0.86800
O484        O  0.17130969  0.37821531  0.58779879    -0.83900
C485        C  0.18553734  0.41084160  0.59354944     0.96600
O486        O  0.16976336  0.44296858  0.59028635    -0.83900
O487        O  0.14190228  0.44878343  0.52268798    -0.86600
C488        C  0.12092390  0.44665321  0.99663762     1.01100
O489        O  0.09521713  0.42757348  0.99746488    -0.79300
O490        O  0.10858306  0.35139215  0.51594777    -0.79500
C491        C  0.11920199  0.32202848  0.53338895     1.01100
O492        O  0.08502249  0.36471292  0.61058033    -0.86800
O493        O  0.13423231  0.41478812  0.63422558    -0.83900
C494        C  0.12067446  0.44858483  0.63398527     0.96600
O495        O  0.10863345  0.46438350  0.60659824    -0.83900
O496        O  0.08421154  0.47846337  0.54099587    -0.86500
C497        C  0.05620411  0.46464366  0.53835224     1.01100
O498        O  0.05226810  0.42953527  0.54662569    -0.79400
O499        O  0.06062787  0.35146345  0.55965265    -0.79500
C500        C  0.06042471  0.35329112  0.59118792     1.01100
Cr501      Cr  0.12737311  0.37225670  0.59721307     1.93700
Cr502      Cr  0.12545494  0.45498227  0.56535428     1.93200
Cr503      Cr  0.08140653  0.39077856  0.53213916     1.39100
O504        O  0.11200358  0.40555896  0.56461296    -1.24600
O505        O  0.37345268  0.82385946  0.56604333    -0.86800
O506        O  0.42197170  0.87810258  0.58804000    -0.83900
C507        C  0.43630074  0.91069239  0.59360842     0.96600
O508        O  0.42064005  0.94292121  0.59004551    -0.83900
O509        O  0.39214493  0.94880817  0.52256977    -0.86600
C510        C  0.37091900  0.94697957  0.99671154     1.01100
O511        O  0.34528668  0.92780963  0.99775470    -0.79300
O512        O  0.35911718  0.85160820  0.51628862    -0.79500
C513        C  0.36950494  0.82212601  0.53370297     1.01100
O514        O  0.33576482  0.86502402  0.61113613    -0.86800
O515        O  0.38519470  0.91492793  0.63458166    -0.83900
C516        C  0.37179873  0.94882582  0.63435666     0.96600
O517        O  0.35977636  0.96463880  0.60697199    -0.83900
O518        O  0.33461206  0.97839754  0.54155880    -0.86500
C519        C  0.30663916  0.96443081  0.53907485     1.01100
O520        O  0.30285966  0.92935072  0.54748519    -0.79400
O521        O  0.31137245  0.85131721  0.56032452    -0.79500
C522        C  0.31120092  0.85328408  0.59187210     1.01100
Cr523      Cr  0.37805889  0.87237043  0.59757190     1.93700
Cr524      Cr  0.37613595  0.95503874  0.56550500     1.93200
Cr525      Cr  0.33191204  0.89080740  0.53265081     1.39100
O526        O  0.36265264  0.90564563  0.56496052    -1.24600
O527        O  0.13382678  0.82381285  0.67662563    -0.86800
O528        O  0.08546583  0.87876916  0.65621569    -0.83900
C529        C  0.07107219  0.91138453  0.65060222     0.96600
O530        O  0.08680368  0.94346855  0.65364715    -0.83900
O531        O  0.11525878  0.94763164  0.72117535    -0.86600
C532        C  0.13634346  0.94522729  0.74712258     1.01100
O533        O  0.16217197  0.92637007  0.74593916    -0.79300
O534        O  0.14849260  0.85077177  0.72653688    -0.79500
C535        C  0.13774675  0.82171722  0.70891316     1.01100
O536        O  0.17115032  0.86539297  0.63164382    -0.86800
O537        O  0.12182568  0.91602803  0.60930688    -0.83900
C538        C  0.13558731  0.94961460  0.60957266     0.96600
O539        O  0.14766706  0.96536009  0.63694841    -0.83900
O540        O  0.17279085  0.97781230  0.70277193    -0.86500
C541        C  0.20083466  0.96388548  0.70516385     1.01100
O542        O  0.20478414  0.92893513  0.69642542    -0.79400
O543        O  0.19610918  0.85116628  0.68220776    -0.79500
C544        C  0.19590826  0.85343933  0.65059016     1.01100
Cr545      Cr  0.12910274  0.87285868  0.64578238     1.93700
Cr546      Cr  0.13132898  0.95498426  0.67841553     1.93200
Cr547      Cr  0.17567044  0.89011097  0.71058105     1.39100
O548        O  0.14490733  0.90560182  0.67846875    -1.24600
O549        O  0.17054660  0.13484773  0.88086881    -0.86800
O550        O  0.12127906  0.08425436  0.85915219    -0.83900
C551        C  0.13488622  0.05045821  0.85957133     0.96600
O552        O  0.14693034  0.03473675  0.88700301    -0.83900
O553        O  0.17265073  0.02236701  0.95251270    -0.86600
C554        C  0.20066893  0.03602801  0.95438888     1.01100
O555        O  0.20451166  0.07083070  0.94522876    -0.79300
O556        O  0.19587416  0.14888219  0.93124751    -0.79500
C557        C  0.19534410  0.14688715  0.89958004     1.01100
O558        O  0.13353174  0.17660180  0.92633137    -0.86800
O559        O  0.08515162  0.12193988  0.90619345    -0.83900
C560        C  0.07072056  0.08941307  0.90089755     0.90200
O561        O  0.08641679  0.05722029  0.90414409    -0.83900
O562        O  0.11553049  0.05331696  0.97160698    -0.86500
C563        C  0.13696542  0.05532311  0.49727922     1.01100
O564        O  0.16277629  0.07388866  0.49566538    -0.79400
O565        O  0.14906463  0.14971811  0.97622342    -0.79500
C566        C  0.13801313  0.17878925  0.95865553     1.01100
Cr567      Cr  0.12868372  0.12753253  0.89548150     1.93700
Cr568      Cr  0.13105944  0.04551748  0.92857189     1.93200
Cr569      Cr  0.17582330  0.11001917  0.95991047     1.39100
O570        O  0.14469702  0.09477637  0.92819861    -1.24600
O571        O  0.33501576  0.13706421  0.86046399    -0.86800
O572        O  0.38433442  0.08704525  0.88461600    -0.83900
C573        C  0.37074845  0.05337512  0.88450976     0.96600
O574        O  0.35888626  0.03743083  0.85716792    -0.83900
O575        O  0.33466357  0.02304659  0.79151132    -0.86600
C576        C  0.30661664  0.03702588  0.78858818     1.01100
O577        O  0.30259892  0.07223485  0.79654920    -0.79300
O578        O  0.31080475  0.15024730  0.80939779    -0.79500
C579        C  0.31048340  0.14858499  0.84092998     1.01100
O580        O  0.37304488  0.17774898  0.81572548    -0.86800
O581        O  0.42152888  0.12328831  0.83829250    -0.83900
C582        C  0.43583994  0.09064119  0.84425170     0.96600
O583        O  0.42016116  0.05851453  0.84093665    -0.83900
O584        O  0.39247215  0.05209525  0.77325942    -0.86500
C585        C  0.37162134  0.05434562  0.74708782     1.01100
O586        O  0.34590549  0.07366174  0.74772110    -0.79400
O587        O  0.35911685  0.14989413  0.76603576    -0.79500
C588        C  0.36926287  0.17941701  0.78340541     1.01100
Cr589      Cr  0.37746701  0.12936937  0.84738325     1.93700
Cr590      Cr  0.37586836  0.04645044  0.81592156     1.93200
Cr591      Cr  0.33185403  0.11071875  0.78215710     1.39100
O592        O  0.36233624  0.09594549  0.81485269    -1.24600
C593        C  0.22280542  0.15581618  0.84894368    -0.14800
C594        C  0.22423833  0.15630432  0.88432723     0.07300
C595        C  0.25425488  0.16045404  0.90479483    -0.14800
C596        C  0.28225384  0.16086240  0.89041410    -0.14800
C597        C  0.28094195  0.15746806  0.85518898     0.07300
C598        C  0.25081368  0.15655256  0.83454173    -0.14800
H599        H  0.20008169  0.15273463  0.83236403     0.11300
H600        H  0.25629246  0.16088482  0.93207324     0.11300
H601        H  0.30507366  0.16173291  0.90707777     0.11300
H602        H  0.24891221  0.15372156  0.80738292     0.11300
C603        C  0.48764634  0.05428018  0.86243017    -0.14800
C604        C  0.47055450  0.09014008  0.85790627     0.07300
C605        C  0.48644702  0.12545957  0.86881294    -0.14800
C606        C  0.01863908  0.12499979  0.88370527    -0.14800
C607        C  0.03585250  0.08922933  0.88797509     0.07300
C608        C  0.01995529  0.05383713  0.87720793    -0.14800
H609        H  0.47605201  0.02652031  0.85452090     0.11300
H610        H  0.47390952  0.15354057  0.86617870     0.11300
H611        H  0.03013725  0.15282906  0.89157309     0.11300
H612        H  0.03258325  0.02581646  0.87979228     0.11300
C613        C  0.25917656  0.96957065  0.72532382    -0.14800
C614        C  0.22815700  0.98482533  0.72423337     0.07300
C615        C  0.22293432  0.01557405  0.74617723    -0.14800
C616        C  0.24831855  0.03083669  0.76884059    -0.14800
C617        C  0.27935119  0.01569728  0.76984777     0.07300
C618        C  0.28457679  0.98485560  0.74798810    -0.14800
H619        H  0.26372717  0.94541121  0.70896741     0.11300
H620        H  0.19911941  0.02708293  0.74651679     0.11300
H621        H  0.24376384  0.05501265  0.78518472     0.11300
H622        H  0.30840708  0.97340849  0.74763145     0.11300
C623        C  0.15889095  0.96998551  0.80427461    -0.14800
C624        C  0.13391323  0.97039086  0.77670245     0.07300
C625        C  0.10971988  0.99935700  0.77549029    -0.14800
C626        C  0.11057615  0.02727283  0.80151859    -0.14800
C627        C  0.13559897  0.02646099  0.82905717     0.07300
C628        C  0.15975489  0.99767311  0.83000214    -0.14800
H629        H  0.17821367  0.94871294  0.80572348     0.11300
H630        H  0.09047037  0.00090559  0.75415653     0.11300
H631        H  0.09138670  0.04864845  0.80058540     0.11300
H632        H  0.17931386  0.99623304  0.85105300     0.11300
C633        C  0.16103945  0.02787572  0.55320854    -0.14800
C634        C  0.13490492  0.02989922  0.52686876     0.07300
C635        C  0.10948625  0.00299649  0.52670489    -0.14800
C636        C  0.11022111  0.97484180  0.55256397    -0.14800
C637        C  0.13635144  0.97331942  0.57890803     0.07300
C638        C  0.16174367  0.99996760  0.57882193    -0.14800
H639        H  0.18131774  0.04742610  0.55378937     0.11300
H640        H  0.08926460  0.00332941  0.00636360     0.11300
H641        H  0.09006972  0.95522140  0.55254353     0.11300
H642        H  0.18211007  0.99958716  0.59902481     0.11300
C643        C  0.28433568  0.01596690  0.99789275    -0.14800
C644        C  0.27924520  0.98534694  0.51999969     0.07300
C645        C  0.24836155  0.96983298  0.51878573    -0.14800
C646        C  0.22298657  0.98459529  0.49572275    -0.14800
C647        C  0.22807272  0.01522004  0.97360559     0.07300
C648        C  0.25896059  0.03072410  0.97482280    -0.14800
H649        H  0.30806992  0.02765517  0.99766386     0.11300
H650        H  0.24392822  0.94575910  0.53527129     0.11300
H651        H  0.19926576  0.97285929  0.49592981     0.11300
H652        H  0.26340891  0.05477135  0.95831542     0.11300
C653        C  0.39592065  0.00328951  0.96926608    -0.14800
C654        C  0.37282983  0.97301176  0.96747628     0.07300
C655        C  0.34824666  0.97180195  0.93955456    -0.14800
C656        C  0.34682304  0.99973579  0.91392577    -0.14800
C657        C  0.37007769  0.02957691  0.91522112     0.07300
C658        C  0.39455189  0.03142952  0.94327201    -0.14800
H659        H  0.41473822  0.00556789  0.99094275     0.11300
H660        H  0.32970150  0.94954971  0.93767379     0.11300
H661        H  0.32763859  0.99749540  0.89257055     0.11300
H662        H  0.41302109  0.05370735  0.94458965     0.11300
C663        C  0.39497004  0.96960079  0.69370345    -0.14800
C664        C  0.37137014  0.97296581  0.66495183     0.07300
C665        C  0.34907137  0.00415096  0.66312218    -0.14800
C666        C  0.35048103  0.03172145  0.68897421    -0.14800
C667        C  0.37404433  0.02881092  0.71770537     0.07300
C668        C  0.39629727  0.99738808  0.71995356    -0.14800
H669        H  0.41270415  0.94625861  0.69549800     0.11300
H670        H  0.33054810  0.00764387  0.64126994     0.11300
H671        H  0.33263106  0.05497233  0.68666569     0.11300
H672        H  0.41430299  0.99384908  0.74223156     0.11300
C673        C  0.25167127  0.84415016  0.58580180    -0.14800
C674        C  0.28182182  0.84439256  0.60641992     0.07300
C675        C  0.28321146  0.84185064  0.64172317    -0.14800
C676        C  0.25520136  0.84176600  0.65612698    -0.14800
C677        C  0.22508649  0.84455932  0.63559314     0.07300
C678        C  0.22366409  0.84439177  0.60020996    -0.14800
H679        H  0.24968298  0.84632784  0.55858514     0.11300
H680        H  0.30604779  0.84193528  0.65838494     0.11300
H681        H  0.25723501  0.84199084  0.68340399     0.11300
H682        H  0.20087795  0.84649281  0.58358473     0.11300
C683        C  0.48671458  0.87581441  0.61911591    -0.14800
C684        C  0.47101823  0.91102058  0.60720154     0.07300
C685        C  0.48826985  0.94668623  0.61080327    -0.14800
C686        C  0.02054451  0.94704116  0.62570335    -0.14800
C687        C  0.03623865  0.91176214  0.63750913     0.07300
C688        C  0.01886792  0.87619382  0.63413414    -0.14800
H689        H  0.47403555  0.84791177  0.61723315     0.11300
H690        H  0.47682114  0.97435516  0.60209337     0.11300
H691        H  0.03331037  0.97488772  0.62756461     0.11300
H692        H  0.03020369  0.84846547  0.64283576     0.11300
C693        C  0.13388288  0.24980586  0.53149270    -0.14800
C694        C  0.12499865  0.28538762  0.51466727     0.07300
C695        C  0.11988692  0.28559860  0.97887498    -0.14800
C696        C  0.12349548  0.25114213  0.96042537    -0.14800
C697        C  0.13234272  0.21555124  0.97726826     0.07300
C698        C  0.13750070  0.21537268  0.51305568    -0.14800
H699        H  0.13778704  0.24847161  0.55884554     0.11300
H700        H  0.11288409  0.31252312  0.96490858     0.11300
H701        H  0.11958846  0.25245008  0.93307523     0.11300
H702        H  0.14448486  0.18846259  0.52704501     0.11300
C703        C  0.38548621  0.28648802  0.76281767    -0.14800
C704        C  0.38122126  0.28598819  0.72706393     0.07300
C705        C  0.37330228  0.25017357  0.71032554    -0.14800
C706        C  0.37003195  0.21570726  0.72885991    -0.14800
C707        C  0.37454854  0.21614969  0.76462672     0.07300
C708        C  0.38222199  0.25203304  0.78134450    -0.14800
H709        H  0.39162283  0.31363202  0.77670350     0.11300
H710        H  0.37003816  0.24865692  0.68300052     0.11300
H711        H  0.36387388  0.18856381  0.71498560     0.11300
H712        H  0.38550887  0.25355975  0.80867217     0.11300
C713        C  0.26878544  0.37621007  0.63135313    -0.14800
C714        C  0.28552732  0.41210771  0.63692272     0.07300
C715        C  0.26921919  0.44768658  0.62738070    -0.14800
C716        C  0.23691619  0.44731286  0.61263514    -0.14800
C717        C  0.22027005  0.41134348  0.60692766     0.07300
C718        C  0.23661321  0.37582539  0.61648328    -0.14800
H719        H  0.28063472  0.34823053  0.63817886     0.11300
H720        H  0.28148743  0.47581950  0.63101166     0.11300
H721        H  0.22495565  0.47521872  0.60579094     0.11300
H722        H  0.22444685  0.34762997  0.61283107     0.11300
C723        C  0.47279145  0.34545599  0.59918850    -0.14800
C724        C  0.47416559  0.34515646  0.63456372     0.07300
C725        C  0.00421103  0.34174756  0.65513164    -0.14800
C726        C  0.03224901  0.34165637  0.64081472    -0.14800
C727        C  0.03094485  0.34461766  0.60556069     0.07300
C728        C  0.50083385  0.34503311  0.58485911    -0.14800
H729        H  0.45005579  0.34806225  0.58254261     0.11300
H730        H  0.00619387  0.34158835  0.68240501     0.11300
H731        H  0.05505819  0.34124961  0.65752271     0.11300
H732        H  0.49893191  0.34758041  0.55767719     0.11300
C733        C  0.37432511  0.75169886  0.96062021    -0.14800
C734        C  0.38096660  0.71547294  0.97722397     0.07300
C735        C  0.38421301  0.71459516  0.01291685    -0.14800
C736        C  0.38120171  0.74907662  0.53152158    -0.14800
C737        C  0.37479553  0.78535901  0.51493812     0.07300
C738        C  0.37131103  0.78618301  0.97922640    -0.14800
H739        H  0.37193390  0.75352061  0.93335808     0.11300
H740        H  0.38933880  0.68711902  0.52668495     0.11300
H741        H  0.38361905  0.74725430  0.55878395     0.11300
H742        H  0.36617270  0.81365351  0.96545321     0.11300
C743        C  0.36046043  0.52846303  0.80074484    -0.14800
C744        C  0.38561892  0.52776856  0.82815433     0.07300
C745        C  0.40990266  0.49919338  0.82890143    -0.14800
C746        C  0.40894439  0.47145597  0.80320143    -0.14800
C747        C  0.38373564  0.47159095  0.77585601     0.07300
C748        C  0.35951410  0.50050319  0.77473581    -0.14800
H749        H  0.34119489  0.54970930  0.79994484     0.11300
H750        H  0.42958625  0.49788519  0.84982841     0.11300
H751        H  0.42833083  0.45028545  0.80453737     0.11300
H752        H  0.34012441  0.50190044  0.75354003     0.11300
C753        C  0.36003665  0.50076698  0.52450789    -0.14800
C754        C  0.38411313  0.52974012  0.52580322     0.07300
C755        C  0.40911472  0.52998567  0.55334541    -0.14800
C756        C  0.40997087  0.50232300  0.57911286    -0.14800
C757        C  0.38578806  0.47373705  0.57820709     0.07300
C758        C  0.36088969  0.47287700  0.55056092    -0.14800
H759        H  0.34082272  0.49927678  0.50314522     0.11300
H760        H  0.42838883  0.55121256  0.55480211     0.11300
H761        H  0.42947060  0.50371572  0.60022178     0.11300
H762        H  0.34172895  0.45157979  0.54961717     0.11300
C763        C  0.47260300  0.48575546  0.99554221    -0.14800
C764        C  0.47780354  0.51604643  0.97316707     0.07300
C765        C  0.50876060  0.53123034  0.97414651    -0.14800
C766        C  0.03413554  0.51630154  0.49713891    -0.14800
C767        C  0.02893017  0.48588732  0.51941238     0.07300
C768        C  0.99795135  0.47086953  0.51854069    -0.14800
H769        H  0.44881228  0.47435631  0.99598157     0.11300
H770        H  0.51326556  0.55506937  0.95746589     0.11300
H771        H  0.05794452  0.52763804  0.49669444     0.11300
H772        H  0.99342527  0.44702988  0.53522319     0.11300
C773        C  0.13114541  0.75156622  0.78156496    -0.14800
C774        C  0.12558340  0.71521527  0.76501322     0.07300
C775        C  0.12329753  0.71418923  0.72941472    -0.14800
C776        C  0.12639565  0.74867120  0.71084941    -0.14800
C777        C  0.13194103  0.78503103  0.72742091     0.07300
C778        C  0.13424272  0.78602214  0.76301386    -0.14800
H779        H  0.13268255  0.75348921  0.80874454     0.11300
H780        H  0.11893273  0.68660191  0.71571300     0.11300
H781        H  0.12485752  0.74677476  0.68367165     0.11300
H782        H  0.13858487  0.81360116  0.77674274     0.11300
C783        C  0.14425681  0.53106924  0.94315955    -0.14800
C784        C  0.12037705  0.52818518  0.91463926     0.07300
C785        C  0.09776133  0.49755020  0.91302014    -0.14800
C786        C  0.09921274  0.46990382  0.93883450    -0.14800
C787        C  0.12314600  0.47223305  0.96727474     0.07300
C788        C  0.14563519  0.50321692  0.96935592    -0.14800
H789        H  0.16220981  0.55401579  0.94476319     0.11300
H790        H  0.07901308  0.49451467  0.89133359     0.11300
H791        H  0.08114311  0.44703793  0.93671459     0.11300
H792        H  0.16390763  0.50633096  0.99144192     0.11300
C793        C  0.09894273  0.53101634  0.68874269    -0.14800
C794        C  0.12303981  0.52879075  0.71705961     0.07300
C795        C  0.14575987  0.49792926  0.71900886    -0.14800
C796        C  0.14436185  0.47000215  0.69288805    -0.14800
C797        C  0.12023438  0.47267189  0.66455938     0.07300
C798        C  0.09748021  0.50329759  0.66299550    -0.14800
H799        H  0.08073418  0.55382556  0.68669283     0.11300
H800        H  0.16421713  0.49494054  0.74096039     0.11300
H801        H  0.16247220  0.44713342  0.69440847     0.11300
H802        H  0.07858576  0.50623635  0.64141716     0.11300
C803        C  0.23675339  0.62505328  0.86513309    -0.14800
C804        C  0.22041524  0.58932555  0.85682136     0.07300
C805        C  0.23707130  0.55343786  0.86386830    -0.14800
C806        C  0.26935911  0.55334810  0.87871696    -0.14800
C807        C  0.28564232  0.58914429  0.88701609     0.07300
C808        C  0.26889586  0.62495861  0.88010587    -0.14800
H809        H  0.22461109  0.65322943  0.86039730     0.11300
H810        H  0.22512013  0.52538598  0.85804633     0.11300
H811        H  0.28163105  0.52524566  0.88343220     0.11300
H812        H  0.28073031  0.65308659  0.88590482     0.11300
C813        C  0.50088502  0.65567671  0.83482267    -0.14800
C814        C  0.03098662  0.65668598  0.85551269     0.07300
C815        C  0.03221003  0.66020587  0.89072570    -0.14800
C816        C  0.00413710  0.66015196  0.90503481    -0.14800
C817        C  0.47411998  0.65621999  0.88450818     0.07300
C818        C  0.47282245  0.65527908  0.84914185    -0.14800
H819        H  0.49903522  0.65263489  0.80768292     0.11300
H820        H  0.05501187  0.66106091  0.90742979     0.11300
H821        H  0.00609103  0.66080463  0.93230041     0.11300
H822        H  0.45013199  0.65222149  0.83250308     0.11300
C823        C  0.99761802  0.53142770  0.76838867    -0.14800
C824        C  0.02860848  0.51608700  0.76944764     0.07300
C825        C  0.03374361  0.48533571  0.74747487    -0.14800
C826        C  0.50834644  0.47034115  0.72464647    -0.14800
C827        C  0.47736790  0.48573048  0.72350584     0.07300
C828        C  0.47220232  0.51639031  0.74558054    -0.14800
H829        H  0.99312907  0.55555602  0.78480008     0.11300
H830        H  0.05753275  0.47373989  0.74713439     0.11300
H831        H  0.51287288  0.44626326  0.70819632     0.11300
H832        H  0.44841472  0.52800937  0.74588998     0.11300
O833        O  0.58506406  0.63609059  0.36068734    -0.86800
O834        O  0.63443659  0.58585280  0.38424858    -0.83900
C835        C  0.62092833  0.55213190  0.38400943     0.96600
O836        O  0.60898011  0.53634568  0.35662417    -0.83900
O837        O  0.58400339  0.52295480  0.29103946    -0.86600
C838        C  0.55600062  0.53712847  0.28830124     1.01100
O839        O  0.55215359  0.57232791  0.29642747    -0.79300
O840        O  0.56102629  0.65017224  0.30975380    -0.79500
C841        C  0.56058419  0.64796484  0.34125077     1.01100
O842        O  0.62307837  0.67700851  0.31593263    -0.86800
O843        O  0.67131964  0.62238879  0.33777224    -0.83900
C844        C  0.68566417  0.58973525  0.34340568     0.96600
O845        O  0.66999119  0.55760755  0.34001871    -0.83900
O846        O  0.64183654  0.55208377  0.27247607    -0.86500
C847        C  0.62082646  0.55434401  0.24645995     1.01100
O848        O  0.59514854  0.57359845  0.24736558    -0.79400
O849        O  0.60931007  0.64934261  0.26615726    -0.79500
C850        C  0.61970240  0.67866088  0.28364212     1.01100
Cr851      Cr  0.62744127  0.62845005  0.34731067     1.93700
Cr852      Cr  0.62553240  0.54586768  0.31524756     1.93200
Cr853      Cr  0.58163530  0.61057948  0.28213981     1.39100
O854        O  0.61208122  0.59533157  0.31467085    -1.24600
O855        O  0.92018872  0.63565849  0.38079662    -0.86800
O856        O  0.87105949  0.58515029  0.35857622    -0.83900
C857        C  0.88486872  0.55151003  0.35879921     0.96600
O858        O  0.89702415  0.53568480  0.38614986    -0.83900
O859        O  0.92247629  0.52292111  0.45171043    -0.86600
C860        C  0.95044157  0.53682433  0.45390212     1.01100
O861        O  0.95420649  0.57175114  0.44503831    -0.79300
O862        O  0.94528688  0.64967336  0.43126599    -0.79500
C863        C  0.94499631  0.64745537  0.39963512     1.01100
O864        O  0.88281003  0.67696091  0.42623249    -0.86800
O865        O  0.83471603  0.62209939  0.40569290    -0.83900
C866        C  0.82044492  0.58949894  0.40011821     0.96600
O867        O  0.83626872  0.55740457  0.40318687    -0.83900
O868        O  0.86505106  0.55310169  0.47054769    -0.86500
C869        C  0.88629860  0.55520702  0.99635643     1.01100
O870        O  0.91205221  0.57402657  0.99506918    -0.79400
O871        O  0.89804762  0.64980545  0.47604705    -0.79500
C872        C  0.88692812  0.67889030  0.45855154     1.01100
Cr873      Cr  0.87825010  0.62812529  0.39515330     1.93700
Cr874      Cr  0.88088105  0.54586627  0.42767986     1.93200
Cr875      Cr  0.92518037  0.61052528  0.45967674     1.39100
O876        O  0.89427643  0.59524021  0.42772641    -1.24600
O877        O  0.88302271  0.32456149  0.17609765    -0.86800
O878        O  0.83479157  0.37938458  0.15562794    -0.83900
C879        C  0.82033486  0.41193068  0.15000231     0.96600
O880        O  0.83597553  0.44407328  0.15306101    -0.83900
O881        O  0.86464133  0.44832558  0.22057225    -0.86600
C882        C  0.88590438  0.44613827  0.24638512     1.01100
O883        O  0.91171922  0.42730383  0.24507754    -0.79300
O884        O  0.89822454  0.35157332  0.22591341    -0.79500
C885        C  0.88717558  0.32255470  0.20840590     1.01100
O886        O  0.92024605  0.36592917  0.13075517    -0.86800
O887        O  0.87106056  0.41652738  0.10857467    -0.83900
C888        C  0.88481215  0.45011772  0.10885973     0.96600
O889        O  0.89670217  0.46598669  0.13624073    -0.83900
O890        O  0.92197993  0.47876834  0.20193292    -0.86500
C891        C  0.95004176  0.46492981  0.20421974     1.01100
O892        O  0.95398883  0.43005645  0.19524554    -0.79400
O893        O  0.94544681  0.35207420  0.18127704    -0.79500
C894        C  0.94507544  0.35412802  0.14963309     1.01100
Cr895      Cr  0.87832457  0.37347962  0.14510536     1.93700
Cr896      Cr  0.88051223  0.45569181  0.17771459     1.93200
Cr897      Cr  0.92512801  0.39104080  0.20968207     1.39100
O898        O  0.89417906  0.40633387  0.17771535    -1.24600
O899        O  0.62308488  0.32376813  0.06571760    -0.86800
O900        O  0.67130979  0.37821530  0.08779876    -0.83900
C901        C  0.68553743  0.41084138  0.09354959     0.96600
O902        O  0.66976339  0.44296849  0.09028700    -0.83900
O903        O  0.64190285  0.44878431  0.02268859    -0.86600
C904        C  0.62092338  0.44665134  0.49663661     1.01100
O905        O  0.59521664  0.42757162  0.49746400    -0.79300
O906        O  0.60858313  0.35139276  0.01594770    -0.79500
C907        C  0.61920196  0.32202898  0.03338883     1.01100
O908        O  0.58502253  0.36471306  0.11058023    -0.86800
O909        O  0.63423248  0.41478800  0.13422581    -0.83900
C910        C  0.62067434  0.44858448  0.13398567     0.96600
O911        O  0.60863339  0.46438335  0.10659867    -0.83900
O912        O  0.58421200  0.47846425  0.04099623    -0.86500
C913        C  0.55620446  0.46464462  0.03835231     1.01100
O914        O  0.55226825  0.42953630  0.04662583    -0.79400
O915        O  0.56062780  0.35146445  0.05965241    -0.79500
C916        C  0.56042469  0.35329170  0.09118776     1.01100
Cr917      Cr  0.62737318  0.37225686  0.09721309     1.93700
Cr918      Cr  0.62545520  0.45498267  0.06535483     1.93200
Cr919      Cr  0.58140667  0.39077943  0.03213919     1.39100
O920        O  0.61200373  0.40555942  0.06461312    -1.24600
O921        O  0.87345292  0.82385961  0.06604354    -0.86800
O922        O  0.92197184  0.87810304  0.08804001    -0.83900
C923        C  0.93630094  0.91069295  0.09360812     0.96600
O924        O  0.92064030  0.94292175  0.09004513    -0.83900
O925        O  0.89214487  0.94880819  0.02256934    -0.86600
C926        C  0.87091938  0.94697906  0.49671115     1.01100
O927        O  0.84528697  0.92780920  0.49775416    -0.79300
O928        O  0.85911740  0.85160816  0.01628871    -0.79500
C929        C  0.86950506  0.82212602  0.03370313     1.01100
O930        O  0.83576489  0.86502427  0.11113627    -0.86800
O931        O  0.88519482  0.91492854  0.13458154    -0.83900
C932        C  0.87179895  0.94882659  0.13435650     0.96600
O933        O  0.85977661  0.96463938  0.10697183    -0.83900
O934        O  0.83461180  0.97839742  0.04155845    -0.86500
C935        C  0.80663907  0.96443034  0.03907428     1.01100
O936        O  0.80285989  0.92935041  0.04748520    -0.79400
O937        O  0.81137263  0.85131703  0.06032464    -0.79500
C938        C  0.81120110  0.85328382  0.09187231     1.01100
Cr939      Cr  0.87805906  0.87237079  0.09757200     1.93700
Cr940      Cr  0.87613598  0.95503897  0.06550471     1.93200
Cr941      Cr  0.83191224  0.89080729  0.03265086     1.39100
O942        O  0.86265275  0.90564581  0.06496055    -1.24600
O943        O  0.63382691  0.82381286  0.17662588    -0.86800
O944        O  0.58546595  0.87876907  0.15621559    -0.83900
C945        C  0.57107228  0.91138448  0.15060256     0.96600
O946        O  0.58680377  0.94346850  0.15364752    -0.83900
O947        O  0.61525916  0.94763128  0.22117558    -0.86600
C948        C  0.63634402  0.94522744  0.24712263     1.01100
O949        O  0.66217260  0.92637036  0.24593912    -0.79300
O950        O  0.64849272  0.85077203  0.22653699    -0.79500
C951        C  0.63774703  0.82171727  0.20891340     1.01100
O952        O  0.67115064  0.86539253  0.13164392    -0.86800
O953        O  0.62182592  0.91602777  0.10930698    -0.83900
C954        C  0.63558734  0.94961457  0.10957269     0.96600
O955        O  0.64766678  0.96536033  0.13694833    -0.83900
O956        O  0.67279093  0.97781214  0.20277150    -0.86500
C957        C  0.70083493  0.96388541  0.20516332     1.01100
O958        O  0.70478454  0.92893511  0.19642526    -0.79400
O959        O  0.69610927  0.85116609  0.18220794    -0.79500
C960        C  0.69590842  0.85343877  0.15059033     1.01100
Cr961      Cr  0.62910298  0.87285850  0.14578246     1.93700
Cr962      Cr  0.63132905  0.95498412  0.17841557     1.93200
Cr963      Cr  0.67567071  0.89011100  0.21058103     1.39100
O964        O  0.64490750  0.90560172  0.17846876    -1.24600
O965        O  0.67054621  0.13484820  0.38086832    -0.86800
O966        O  0.62127856  0.08425517  0.35915162    -0.83900
C967        C  0.63488595  0.05045916  0.35957050     0.96600
O968        O  0.64693029  0.03473747  0.38700198    -0.83900
O969        O  0.67265084  0.02236708  0.45251154    -0.86600
C970        C  0.70066902  0.03602825  0.45438805     1.01100
O971        O  0.70451168  0.07083109  0.44522825    -0.79300
O972        O  0.69587360  0.14888252  0.43124718    -0.79500
C973        C  0.69534367  0.14688753  0.39957968     1.01100
O974        O  0.63353162  0.17660177  0.42633124    -0.86800
O975        O  0.58515147  0.12193999  0.40619359    -0.83900
C976        C  0.57072042  0.08941323  0.40089780     0.90200
O977        O  0.58641672  0.05722042  0.40414356    -0.83900
O978        O  0.61553040  0.05331655  0.47160608    -0.86500
C979        C  0.63696516  0.05532330  0.99727956     1.01100
O980        O  0.66277616  0.07388884  0.99566578    -0.79400
O981        O  0.64906399  0.14971743  0.47622304    -0.79500
C982        C  0.63801264  0.17878866  0.45865544     1.01100
Cr983      Cr  0.62868344  0.12753285  0.39548118     1.93700
Cr984      Cr  0.63105942  0.04551755  0.42857102     1.93200
Cr985      Cr  0.67582307  0.11001916  0.45991001     1.39100
O986        O  0.64469694  0.09477644  0.42819803    -1.24600
O987        O  0.83501577  0.13706438  0.36046413    -0.86800
O988        O  0.88433427  0.08704532  0.38461627    -0.83900
C989        C  0.87074803  0.05337535  0.38450987     0.96600
O990        O  0.85888543  0.03743155  0.35716798    -0.83900
O991        O  0.83466348  0.02304736  0.29151121    -0.86600
C992        C  0.80661653  0.03702705  0.28858737     1.01100
O993        O  0.80259886  0.07223585  0.29654844    -0.79300
O994        O  0.81080499  0.15024803  0.30939798    -0.79500
C995        C  0.81048344  0.14858527  0.34093010     1.01100
O996        O  0.87304514  0.17774967  0.31572617    -0.86800
O997        O  0.92152898  0.12328820  0.33829319    -0.83900
C998        C  0.93583985  0.09064100  0.34425225     0.96600
O999        O  0.92016084  0.05851449  0.34093741    -0.83900
O1000       O  0.89247240  0.05209509  0.27326000    -0.86500
C1001       C  0.87162194  0.05434602  0.24708814     1.01100
O1002       O  0.84590622  0.07366261  0.24772113    -0.79400
O1003       O  0.85911790  0.14989485  0.26603634    -0.79500
C1004       C  0.86926341  0.17941787  0.28340614     1.01100
Cr1005     Cr  0.87746706  0.12936961  0.34738367     1.93700
Cr1006     Cr  0.87586813  0.04645074  0.31592192     1.93200
Cr1007     Cr  0.83185449  0.11071962  0.28215710     1.39100
O1008       O  0.86233631  0.09594591  0.31485293    -1.24600
C1009       C  0.72280518  0.15581769  0.34894360    -0.14800
C1010       C  0.72423822  0.15630474  0.38432726     0.07300
C1011       C  0.75425461  0.16045337  0.40479495    -0.14800
C1012       C  0.78225377  0.16086182  0.39041447    -0.14800
C1013       C  0.78094211  0.15746870  0.35518933     0.07300
C1014       C  0.75081391  0.15655415  0.33454164    -0.14800
H1015       H  0.70008378  0.15273735  0.33236537     0.11300
H1016       H  0.75629192  0.16088316  0.43207338     0.11300
H1017       H  0.80507350  0.16173195  0.40707852     0.11300
H1018       H  0.74891237  0.15372421  0.30738495     0.11300
C1019       C  0.98764631  0.05428025  0.36243103    -0.14800
C1020       C  0.97055431  0.09013945  0.35790671     0.07300
C1021       C  0.98644709  0.12545917  0.36881285    -0.14800
C1022       C  0.51863884  0.12500038  0.38370745    -0.14800
C1023       C  0.53585216  0.08922896  0.38797623     0.07300
C1024       C  0.51995514  0.05383705  0.37720920    -0.14800
H1025       H  0.97605021  0.02651592  0.35452105     0.11300
H1026       H  0.97390997  0.15354032  0.36617856     0.11300
H1027       H  0.53013500  0.15282371  0.39157370     0.11300
H1028       H  0.53258276  0.02581706  0.37979278     0.11300
C1029       C  0.75917691  0.96957059  0.22532339    -0.14800
C1030       C  0.72815686  0.98482638  0.22423245     0.07300
C1031       C  0.72293489  0.01557562  0.24617494    -0.14800
C1032       C  0.74831819  0.03083910  0.26883830    -0.14800
C1033       C  0.77935125  0.01569863  0.26984642     0.07300
C1034       C  0.78457664  0.98485648  0.24798791    -0.14800
H1035       H  0.76372685  0.94541357  0.20897018     0.11300
H1036       H  0.69911505  0.02708752  0.24651388     0.11300
H1037       H  0.74376395  0.05501498  0.28518082     0.11300
H1038       H  0.80840862  0.97340750  0.24763185     0.11300
C1039       C  0.65889257  0.96998849  0.30427339    -0.14800
C1040       C  0.63391431  0.97039168  0.27670223     0.07300
C1041       C  0.60971958  0.99935669  0.27549006    -0.14800
C1042       C  0.61057599  0.02727262  0.30151835    -0.14800
C1043       C  0.63559916  0.02646284  0.32905604     0.07300
C1044       C  0.65975632  0.99767635  0.33000052    -0.14800
H1045       H  0.67821694  0.94871564  0.30572227     0.11300
H1046       H  0.59047162  0.00090365  0.25415889     0.11300
H1047       H  0.59138390  0.04864860  0.30058535     0.11300
H1048       H  0.67931581  0.99623784  0.35105078     0.11300
C1049       C  0.66103982  0.02787415  0.05320782    -0.14800
C1050       C  0.63490505  0.02989921  0.02686896     0.07300
C1051       C  0.60948560  0.00299743  0.02670554    -0.14800
C1052       C  0.61022063  0.97484281  0.05256451    -0.14800
C1053       C  0.63635122  0.97331893  0.07890775     0.07300
C1054       C  0.66174450  0.99996611  0.07882133    -0.14800
H1055       H  0.68132026  0.04742494  0.05378829     0.11300
H1056       H  0.58926478  0.00332938  0.50636275     0.11300
H1057       H  0.59006733  0.95522220  0.05254468     0.11300
H1058       H  0.68210960  0.99958427  0.09902176     0.11300
C1059       C  0.78433559  0.01596633  0.49789163    -0.14800
C1060       C  0.77924467  0.98534567  0.01999890     0.07300
C1061       C  0.74836120  0.96983159  0.01878447    -0.14800
C1062       C  0.72298649  0.98459427  0.99572174    -0.14800
C1063       C  0.72807290  0.01522005  0.47360474     0.07300
C1064       C  0.75896079  0.03072408  0.47482159    -0.14800
H1065       H  0.80807146  0.02765538  0.49766237     0.11300
H1066       H  0.74392778  0.94575623  0.03527041     0.11300
H1067       H  0.69926361  0.97285741  0.99592854     0.11300
H1068       H  0.76340871  0.05476958  0.45831507     0.11300
C1069       C  0.89592075  0.00328930  0.46926569    -0.14800
C1070       C  0.87283011  0.97301111  0.46747583     0.07300
C1071       C  0.84824721  0.97180139  0.43955415    -0.14800
C1072       C  0.84682303  0.99973502  0.41392549    -0.14800
C1073       C  0.87007747  0.02957660  0.41522094     0.07300
C1074       C  0.89455180  0.03142955  0.44327172    -0.14800
H1075       H  0.91473855  0.00556774  0.49094222     0.11300
H1076       H  0.82970014  0.94954693  0.43767330     0.11300
H1077       H  0.82763868  0.99749451  0.39257017     0.11300
H1078       H  0.91302024  0.05370673  0.44458907     0.11300
C1079       C  0.89496950  0.96960077  0.19370372    -0.14800
C1080       C  0.87137069  0.97296682  0.16495165     0.07300
C1081       C  0.84907264  0.00415335  0.16312160    -0.14800
C1082       C  0.85048272  0.03172311  0.18897385    -0.14800
C1083       C  0.87404482  0.02881168  0.21770549     0.07300
C1084       C  0.89629717  0.99738753  0.21995420    -0.14800
H1085       H  0.91270397  0.94625565  0.19549881     0.11300
H1086       H  0.83055027  0.00764697  0.14126905     0.11300
H1087       H  0.83263108  0.05497778  0.18666473     0.11300
H1088       H  0.91430141  0.99384800  0.24223177     0.11300
C1089       C  0.75167127  0.84414923  0.08580159    -0.14800
C1090       C  0.78182174  0.84439166  0.10642007     0.07300
C1091       C  0.78321193  0.84184946  0.14172378    -0.14800
C1092       C  0.75520113  0.84176472  0.15612665    -0.14800
C1093       C  0.72508647  0.84455834  0.13559351     0.07300
C1094       C  0.72366439  0.84439071  0.10021049    -0.14800
H1095       H  0.74968344  0.84632650  0.05858872     0.11300
H1096       H  0.80604399  0.84193380  0.15838196     0.11300
H1097       H  0.75723542  0.84198929  0.18340780     0.11300
H1098       H  0.70087633  0.84649215  0.08358340     0.11300
C1099       C  0.98671412  0.87581502  0.11911831    -0.14800
C1100       C  0.97101846  0.91102081  0.10720106     0.07300
C1101       C  0.98827084  0.94668594  0.11079980    -0.14800
C1102       C  0.52054482  0.94704088  0.12570304    -0.14800
C1103       C  0.53623879  0.91176245  0.13750974     0.07300
C1104       C  0.51886756  0.87619438  0.13413572    -0.14800
H1105       H  0.97403437  0.84791279  0.11723753     0.11300
H1106       H  0.97682301  0.97435435  0.10208755     0.11300
H1107       H  0.53331218  0.97489022  0.12756375     0.11300
H1108       H  0.53020358  0.84846491  0.14283859     0.11300
C1109       C  0.63388521  0.24980706  0.03149316    -0.14800
C1110       C  0.62499896  0.28538805  0.01466714     0.07300
C1111       C  0.61988742  0.28559798  0.47887484    -0.14800
C1112       C  0.62349593  0.25114119  0.46042582    -0.14800
C1113       C  0.63234204  0.21555025  0.47726805     0.07300
C1114       C  0.63750314  0.21537407  0.01305571    -0.14800
H1115       H  0.63779035  0.24847374  0.05884266     0.11300
H1116       H  0.61288612  0.31251993  0.46491030     0.11300
H1117       H  0.61958933  0.25244987  0.43307201     0.11300
H1118       H  0.64448945  0.18846308  0.02704643     0.11300
C1119       C  0.88548762  0.28648927  0.26281837    -0.14800
C1120       C  0.88122174  0.28598927  0.22706473     0.07300
C1121       C  0.87330162  0.25017503  0.21032599    -0.14800
C1122       C  0.87003114  0.21570845  0.22886076    -0.14800
C1123       C  0.87454872  0.21615069  0.26462734     0.07300
C1124       C  0.88222320  0.25203379  0.28134543    -0.14800
H1125       H  0.89162429  0.31363010  0.27670313     0.11300
H1126       H  0.87003692  0.24865877  0.18300397     0.11300
H1127       H  0.86387207  0.18856614  0.21498650     0.11300
H1128       H  0.88551062  0.25356063  0.30867019     0.11300
C1129       C  0.76878564  0.37621025  0.13135265    -0.14800
C1130       C  0.78552742  0.41210801  0.13692275     0.07300
C1131       C  0.76921890  0.44768664  0.12738076    -0.14800
C1132       C  0.73691652  0.44731245  0.11263534    -0.14800
C1133       C  0.72027006  0.41134371  0.10692750     0.07300
C1134       C  0.73661356  0.37582548  0.11648274    -0.14800
H1135       H  0.78063537  0.34823059  0.13817801     0.11300
H1136       H  0.78148833  0.47582168  0.13101252     0.11300
H1137       H  0.72495357  0.47522322  0.10579013     0.11300
H1138       H  0.72444681  0.34762921  0.11283021     0.11300
C1139       C  0.97279169  0.34545977  0.09918852    -0.14800
C1140       C  0.97416542  0.34515801  0.13456325     0.07300
C1141       C  0.50421087  0.34174820  0.15513089    -0.14800
C1142       C  0.53224871  0.34165711  0.14081457    -0.14800
C1143       C  0.53094469  0.34461840  0.10556013     0.07300
C1144       C  0.00083355  0.34503660  0.08485848    -0.14800
H1145       H  0.95005320  0.34806786  0.08254035     0.11300
H1146       H  0.50619380  0.34158909  0.18240865     0.11300
H1147       H  0.55505881  0.34125046  0.15752264     0.11300
H1148       H  0.99893199  0.34758548  0.05767906     0.11300
C1149       C  0.87432855  0.75169992  0.46062045    -0.14800
C1150       C  0.88096515  0.71547319  0.47722327     0.07300
C1151       C  0.88420753  0.71459372  0.51291628    -0.14800
C1152       C  0.88120323  0.74907698  0.03152181    -0.14800
C1153       C  0.87479556  0.78535888  0.01493843     0.07300
C1154       C  0.87131537  0.78618427  0.47922637    -0.14800
H1155       H  0.87194032  0.75352276  0.43335558     0.11300
H1156       H  0.88934103  0.68712213  0.02668407     0.11300
H1157       H  0.88362235  0.74725470  0.05878586     0.11300
H1158       H  0.86618128  0.81365515  0.46545435     0.11300
C1159       C  0.86045981  0.52846242  0.30074609    -0.14800
C1160       C  0.88561932  0.52776910  0.32815501     0.07300
C1161       C  0.90990379  0.49919563  0.32890115    -0.14800
C1162       C  0.90894624  0.47145803  0.30320141    -0.14800
C1163       C  0.88373635  0.47159180  0.27585666     0.07300
C1164       C  0.85951405  0.50050237  0.27473731    -0.14800
H1165       H  0.84119453  0.54970661  0.29994663     0.11300
H1166       H  0.92958945  0.49788811  0.34982941     0.11300
H1167       H  0.92833206  0.45029022  0.30453629     0.11300
H1168       H  0.84012298  0.50189843  0.25354136     0.11300
C1169       C  0.86003648  0.50076870  0.02450879    -0.14800
C1170       C  0.88411314  0.52974102  0.02580373     0.07300
C1171       C  0.90911507  0.52998645  0.05334581    -0.14800
C1172       C  0.90997095  0.50232345  0.07911356    -0.14800
C1173       C  0.88578769  0.47373817  0.07820766     0.07300
C1174       C  0.86088907  0.47287860  0.05056172    -0.14800
H1175       H  0.84082173  0.49927836  0.00314524     0.11300
H1176       H  0.92838742  0.55121054  0.05480263     0.11300
H1177       H  0.92946928  0.50371578  0.10022016     0.11300
H1178       H  0.84172895  0.45158237  0.04961792     0.11300
C1179       C  0.97260257  0.48575463  0.49554232    -0.14800
C1180       C  0.97780351  0.51604641  0.47316724     0.07300
C1181       C  0.00876052  0.53122967  0.47414669    -0.14800
C1182       C  0.53413613  0.51630256  0.99713941    -0.14800
C1183       C  0.52893021  0.48588846  0.01941270     0.07300
C1184       C  0.49795128  0.47087017  0.01854123    -0.14800
H1185       H  0.94881478  0.47435715  0.49598140     0.11300
H1186       H  0.01326555  0.55507165  0.45746385     0.11300
H1187       H  0.55794090  0.52763743  0.99669473     0.11300
H1188       H  0.49342585  0.44703352  0.03522194     0.11300
C1189       C  0.63114608  0.75156654  0.28156538    -0.14800
C1190       C  0.62558403  0.71521551  0.26501373     0.07300
C1191       C  0.62329802  0.71418964  0.22941521    -0.14800
C1192       C  0.62639605  0.74867131  0.21084984    -0.14800
C1193       C  0.63194142  0.78503122  0.22742128     0.07300
C1194       C  0.63424332  0.78602221  0.26301425    -0.14800
H1195       H  0.63268347  0.75348956  0.30874560     0.11300
H1196       H  0.61893293  0.68660131  0.21571305     0.11300
H1197       H  0.62485797  0.74677483  0.18367154     0.11300
H1198       H  0.63858577  0.81360213  0.27674351     0.11300
C1199       C  0.64425522  0.53106884  0.44315943    -0.14800
C1200       C  0.62037655  0.52818419  0.41463859     0.07300
C1201       C  0.59776145  0.49754825  0.41301860    -0.14800
C1202       C  0.59921281  0.46990127  0.43883299    -0.14800
C1203       C  0.62314556  0.47223160  0.46727382     0.07300
C1204       C  0.64563413  0.50321653  0.46935590    -0.14800
H1205       H  0.66220929  0.55401807  0.44476394     0.11300
H1206       H  0.57901447  0.49451197  0.39133241     0.11300
H1207       H  0.58114549  0.44703702  0.43671263     0.11300
H1208       H  0.66390484  0.50633098  0.49144123     0.11300
C1209       C  0.59894227  0.53101631  0.18874292    -0.14800
C1210       C  0.62304016  0.52879066  0.21705987     0.07300
C1211       C  0.64575995  0.49792938  0.21900893    -0.14800
C1212       C  0.64436196  0.47000195  0.19288848    -0.14800
C1213       C  0.62023416  0.47267150  0.16455978     0.07300
C1214       C  0.59748011  0.50329674  0.16299619    -0.14800
H1215       H  0.58073626  0.55382221  0.18669330     0.11300
H1216       H  0.66421880  0.49494064  0.24096175     0.11300
H1217       H  0.66247189  0.44713336  0.19440878     0.11300
H1218       H  0.57858441  0.50623578  0.14141688     0.11300
C1219       C  0.73675295  0.62505270  0.36513386    -0.14800
C1220       C  0.72041480  0.58932525  0.35682235     0.07300
C1221       C  0.73707072  0.55343719  0.36386958    -0.14800
C1222       C  0.76935875  0.55334778  0.37871832    -0.14800
C1223       C  0.78564184  0.58914403  0.38701700     0.07300
C1224       C  0.76889539  0.62495846  0.38010662    -0.14800
H1225       H  0.72461007  0.65323021  0.36039737     0.11300
H1226       H  0.72512056  0.52538730  0.35804853     0.11300
H1227       H  0.78163018  0.52524620  0.38343352     0.11300
H1228       H  0.78072986  0.65308601  0.38590505     0.11300
C1229       C  0.00088484  0.65567853  0.33482418    -0.14800
C1230       C  0.53098617  0.65668690  0.35551240     0.07300
C1231       C  0.53221008  0.66020767  0.39072572    -0.14800
C1232       C  0.50413664  0.66015345  0.40503444    -0.14800
C1233       C  0.97411973  0.65622047  0.38450960     0.07300
C1234       C  0.97282175  0.65528064  0.34914303    -0.14800
H1235       H  0.99903460  0.65263758  0.30768363     0.11300
H1236       H  0.55500846  0.66106362  0.40742734     0.11300
H1237       H  0.50609100  0.66080644  0.43230014     0.11300
H1238       H  0.95013468  0.65222408  0.33250675     0.11300
C1239       C  0.49761825  0.53142736  0.26838744    -0.14800
C1240       C  0.52860882  0.51608767  0.26944622     0.07300
C1241       C  0.53374374  0.48533738  0.24747235    -0.14800
C1242       C  0.00834596  0.47034174  0.22464754    -0.14800
C1243       C  0.97736787  0.48573192  0.22350584     0.07300
C1244       C  0.97220193  0.51639278  0.24557977    -0.14800
H1245       H  0.49312864  0.55555820  0.28480199     0.11300
H1246       H  0.55753685  0.47374034  0.24713198     0.11300
H1247       H  0.01287269  0.44626394  0.20819846     0.11300
H1248       H  0.94841686  0.52801150  0.24588836     0.11300
O1249       O  0.58506462  0.63608928  0.86068711    -0.86800
O1250       O  0.63443747  0.58585195  0.88424800    -0.83900
C1251       C  0.62092956  0.55213086  0.88400899     0.96600
O1252       O  0.60898134  0.53634453  0.85662373    -0.83900
O1253       O  0.58400408  0.52295351  0.79103930    -0.86600
C1254       C  0.55600114  0.53712693  0.78830160     1.01100
O1255       O  0.55215402  0.57232631  0.79642769    -0.79300
O1256       O  0.56102640  0.65017088  0.80975369    -0.79500
C1257       C  0.56058460  0.64796339  0.84125082     1.01100
O1258       O  0.62307850  0.67700766  0.81593197    -0.86800
O1259       O  0.67132011  0.62238827  0.83777139    -0.83900
C1260       C  0.68566475  0.58973487  0.84340474     0.96600
O1261       O  0.66999188  0.55760700  0.84001770    -0.83900
O1262       O  0.64183685  0.55208312  0.77247531    -0.86500
C1263       C  0.62082669  0.55434347  0.74645929     1.01100
O1264       O  0.59514848  0.57359742  0.74736516    -0.79400
O1265       O  0.60930958  0.64934178  0.76615653    -0.79500
C1266       C  0.61970208  0.67866005  0.78364140     1.01100
Cr1267     Cr  0.62744177  0.62844922  0.84731010     1.93700
Cr1268     Cr  0.62553311  0.54586684  0.81524695     1.93200
Cr1269     Cr  0.58163531  0.61057826  0.78213952     1.39100
O1270       O  0.61208167  0.59533066  0.81467032    -1.24600
O1271       O  0.92018865  0.63565783  0.88079566    -0.86800
O1272       O  0.87105945  0.58514916  0.85857618    -0.83900
C1273       C  0.88486837  0.55150839  0.85879958     0.96600
O1274       O  0.89702381  0.53568369  0.88615032    -0.83900
O1275       O  0.92247670  0.52292133  0.95171066    -0.86600
C1276       C  0.95044207  0.53682435  0.95390167     1.01100
O1277       O  0.95420699  0.57175077  0.94503717    -0.79300
O1278       O  0.94528733  0.64967312  0.93126462    -0.79500
C1279       C  0.94499648  0.64745476  0.89963379     1.01100
O1280       O  0.88281012  0.67696050  0.92623225    -0.86800
O1281       O  0.83471624  0.62209903  0.90569298    -0.83900
C1282       C  0.82044516  0.58949853  0.90011843     0.96600
O1283       O  0.83626892  0.55740420  0.90318766    -0.83900
O1284       O  0.86505191  0.55310311  0.97054834    -0.86500
C1285       C  0.88629733  0.55520604  0.49635604     1.01100
O1286       O  0.91205078  0.57402628  0.49506927    -0.79400
O1287       O  0.89804905  0.64980555  0.97604671    -0.79500
C1288       C  0.88692895  0.67889013  0.95855137     1.01100
Cr1289     Cr  0.87825019  0.62812474  0.89515298     1.93700
Cr1290     Cr  0.88088135  0.54586621  0.92768043     1.93200
Cr1291     Cr  0.92518130  0.61052522  0.95967598     1.39100
O1292       O  0.89427681  0.59524002  0.92772622    -1.24600
O1293       O  0.88302214  0.32456038  0.67609712    -0.86800
O1294       O  0.83479120  0.37938408  0.65562737    -0.83900
C1295       C  0.82033468  0.41193019  0.65000147     0.96600
O1296       O  0.83597548  0.44407264  0.65306033    -0.83900
O1297       O  0.86464041  0.44832463  0.72057184    -0.86600
C1298       C  0.88590293  0.44613680  0.74638493     1.01100
O1299       O  0.91171786  0.42730220  0.74507767    -0.79300
O1300       O  0.89822331  0.35157197  0.72591305    -0.79500
C1301       C  0.88717479  0.32255335  0.70840536     1.01100
O1302       O  0.92024592  0.36592797  0.63075535    -0.86800
O1303       O  0.87106080  0.41652672  0.60857452    -0.83900
C1304       C  0.88481237  0.45011706  0.60885983     0.96600
O1305       O  0.89670268  0.46598549  0.63624099    -0.83900
O1306       O  0.92197958  0.47876697  0.70193360    -0.86500
C1307       C  0.95004145  0.46492836  0.70422077     1.01100
O1308       O  0.95398858  0.43005502  0.69524668    -0.79400
O1309       O  0.94544652  0.35207299  0.68127735    -0.79500
C1310       C  0.94507526  0.35412685  0.64963344     1.01100
Cr1311     Cr  0.87832431  0.37347873  0.64510513     1.93700
Cr1312     Cr  0.88051207  0.45569070  0.67771453     1.93200
Cr1313     Cr  0.92512726  0.39103937  0.70968239     1.39100
O1314       O  0.89417875  0.40633270  0.67771533    -1.24600
O1315       O  0.62308464  0.32376731  0.56571735    -0.86800
O1316       O  0.67130962  0.37821464  0.58779796    -0.83900
C1317       C  0.68553736  0.41084089  0.59354844     0.96600
O1318       O  0.66976347  0.44296792  0.59028557    -0.83900
O1319       O  0.64190251  0.44878269  0.52268731    -0.86600
C1320       C  0.62092402  0.44665246  0.99663765     1.01100
O1321       O  0.59521707  0.42757302  0.99746485    -0.79300
O1322       O  0.60858305  0.35139180  0.51594739    -0.79500
C1323       C  0.61920185  0.32202807  0.53338860     1.01100
O1324       O  0.58502248  0.36471294  0.61057998    -0.86800
O1325       O  0.63423264  0.41478801  0.63422502    -0.83900
C1326       C  0.62067483  0.44858475  0.63398457     0.96600
O1327       O  0.60863362  0.46438313  0.60659745    -0.83900
O1328       O  0.58421173  0.47846298  0.54099509    -0.86500
C1329       C  0.55620419  0.46464326  0.53835134     1.01100
O1330       O  0.55226811  0.42953512  0.54662507    -0.79400
O1331       O  0.56062780  0.35146331  0.55965225    -0.79500
C1332       C  0.56042471  0.35329115  0.59118762     1.01100
Cr1333     Cr  0.62737312  0.37225639  0.59721258     1.93700
Cr1334     Cr  0.62545508  0.45498179  0.56535356     1.93200
Cr1335     Cr  0.58140650  0.39077823  0.53213860     1.39100
O1336       O  0.61200354  0.40555860  0.56461241    -1.24600
O1337       O  0.87345306  0.82385963  0.56604314    -0.86800
O1338       O  0.92197172  0.87810293  0.58803955    -0.83900
C1339       C  0.93630075  0.91069287  0.59360780     0.96600
O1340       O  0.92064008  0.94292156  0.59004507    -0.83900
O1341       O  0.89214518  0.94880806  0.52256929    -0.86600
C1342       C  0.87091880  0.94697923  0.99671130     1.01100
O1343       O  0.84528663  0.92780925  0.99775459    -0.79300
O1344       O  0.85911808  0.85160845  0.51628834    -0.79500
C1345       C  0.86950556  0.82212623  0.53370277     1.01100
O1346       O  0.83576491  0.86502410  0.61113550    -0.86800
O1347       O  0.88519466  0.91492841  0.63458113    -0.83900
C1348       C  0.87179863  0.94882622  0.63435610     0.96600
O1349       O  0.85977620  0.96463901  0.60697132    -0.83900
O1350       O  0.83461183  0.97839723  0.54155794    -0.86500
C1351       C  0.80663905  0.96443015  0.53907368     1.01100
O1352       O  0.80285977  0.92935007  0.54748417    -0.79400
O1353       O  0.81137288  0.85131684  0.56032376    -0.79500
C1354       C  0.81120109  0.85328403  0.59187127     1.01100
Cr1355     Cr  0.87805901  0.87237067  0.59757149     1.93700
Cr1356     Cr  0.87613592  0.95503882  0.56550438     1.93200
Cr1357     Cr  0.83191243  0.89080715  0.53265012     1.39100
O1358       O  0.86265271  0.90564569  0.56496002    -1.24600
O1359       O  0.63382739  0.82381311  0.67662570    -0.86800
O1360       O  0.58546608  0.87876904  0.65621572    -0.83900
C1361       C  0.57107223  0.91138445  0.65060261     0.96600
O1362       O  0.58680356  0.94346849  0.65364743    -0.83900
O1363       O  0.61525942  0.94763179  0.72117544    -0.86600
C1364       C  0.63634442  0.94522796  0.74712241     1.01100
O1365       O  0.66217304  0.92637097  0.74593868    -0.79300
O1366       O  0.64849392  0.85077199  0.72653679    -0.79500
C1367       C  0.63774805  0.82171729  0.70891324     1.01100
O1368       O  0.67115032  0.86539332  0.63164311    -0.86800
O1369       O  0.62182545  0.91602792  0.60930668    -0.83900
C1370       C  0.63558696  0.94961462  0.60957227     0.96600
O1371       O  0.64766641  0.96536053  0.63694784    -0.83900
O1372       O  0.67279081  0.97781294  0.70277088    -0.86500
C1373       C  0.70083468  0.96388634  0.70516236     1.01100
O1374       O  0.70478424  0.92893608  0.69642378    -0.79400
O1375       O  0.69610955  0.85116706  0.68220690    -0.79500
C1376       C  0.69590838  0.85343993  0.65058926     1.01100
Cr1377     Cr  0.62910289  0.87285882  0.64578216     1.93700
Cr1378     Cr  0.63132894  0.95498451  0.67841517     1.93200
Cr1379     Cr  0.67567112  0.89011169  0.71058029     1.39100
O1380       O  0.64490756  0.90560215  0.67846829    -1.24600
O1381       O  0.67054629  0.13484789  0.88086907    -0.86800
O1382       O  0.62127869  0.08425475  0.85915226    -0.83900
C1383       C  0.63488602  0.05045877  0.85957115     0.96600
O1384       O  0.64693019  0.03473710  0.88700277    -0.83900
O1385       O  0.67265080  0.02236729  0.95251245    -0.86600
C1386       C  0.70066904  0.03602842  0.95438884     1.01100
O1387       O  0.70451174  0.07083120  0.94522920    -0.79300
O1388       O  0.69587367  0.14888260  0.93124787    -0.79500
C1389       C  0.69534376  0.14688727  0.89958038     1.01100
O1390       O  0.63353156  0.17660189  0.92633162    -0.86800
O1391       O  0.58515148  0.12193991  0.90619402    -0.83900
C1392       C  0.57072046  0.08941314  0.90089827     0.90200
O1393       O  0.58641676  0.05722032  0.90414435    -0.83900
O1394       O  0.61553046  0.05331680  0.97160693    -0.86500
C1395       C  0.63696516  0.05532290  0.49727869     1.01100
O1396       O  0.66277612  0.07388852  0.49566494    -0.79400
O1397       O  0.64906395  0.14971788  0.97622358    -0.79500
C1398       C  0.63801267  0.17878911  0.95865580     1.01100
Cr1399     Cr  0.62868348  0.12753268  0.89548176     1.93700
Cr1400     Cr  0.63105942  0.04551758  0.92857184     1.93200
Cr1401     Cr  0.67582304  0.11001937  0.95991075     1.39100
O1402       O  0.64469692  0.09477647  0.92819876    -1.24600
O1403       O  0.83501572  0.13706350  0.86046416    -0.86800
O1404       O  0.88433448  0.08704475  0.88461586    -0.83900
C1405       C  0.87074832  0.05337473  0.88450957     0.96600
O1406       O  0.85888604  0.03743044  0.85716774    -0.83900
O1407       O  0.83466334  0.02304612  0.79151126    -0.86600
C1408       C  0.80661645  0.03702548  0.78858791     1.01100
O1409       O  0.80259874  0.07223423  0.79654947    -0.79300
O1410       O  0.81080434  0.15024658  0.80939816    -0.79500
C1411       C  0.81048322  0.14858419  0.84093037     1.01100
O1412       O  0.87304444  0.17774864  0.81572543    -0.86800
O1413       O  0.92152867  0.12328794  0.83829212    -0.83900
C1414       C  0.93583979  0.09064091  0.84425109     0.96600
O1415       O  0.92016094  0.05851426  0.84093633    -0.83900
O1416       O  0.89247169  0.05209491  0.77325912    -0.86500
C1417       C  0.87162084  0.05434559  0.74708744     1.01100
O1418       O  0.84590497  0.07366137  0.74772095    -0.79400
O1419       O  0.85911614  0.14989380  0.76603572    -0.79500
C1420       C  0.86926229  0.17941667  0.78340539     1.01100
Cr1421     Cr  0.87746686  0.12936889  0.84738311     1.93700
Cr1422     Cr  0.87586808  0.04645001  0.81592137     1.93200
Cr1423     Cr  0.83185357  0.11071825  0.78215718     1.39100
O1424       O  0.86233595  0.09594502  0.81485258    -1.24600
C1425       C  0.72280505  0.15581672  0.84894413    -0.14800
C1426       C  0.72423845  0.15630405  0.88432805     0.07300
C1427       C  0.75425503  0.16045251  0.90479556    -0.14800
C1428       C  0.78225375  0.16086063  0.89041479    -0.14800
C1429       C  0.78094203  0.15746736  0.85518963     0.07300
C1430       C  0.75081374  0.15655293  0.83454267    -0.14800
H1431       H  0.70008412  0.15273661  0.83236690     0.11300
H1432       H  0.75629243  0.16088271  0.93207435     0.11300
H1433       H  0.80507548  0.16173058  0.90707993     0.11300
H1434       H  0.74891169  0.15372238  0.80738204     0.11300
C1435       C  0.98764631  0.05428038  0.86242954    -0.14800
C1436       C  0.97055454  0.09013983  0.85790495     0.07300
C1437       C  0.98644731  0.12545994  0.86881071    -0.14800
C1438       C  0.51863878  0.12499985  0.88370764    -0.14800
C1439       C  0.53585238  0.08922893  0.88797633     0.07300
C1440       C  0.51995515  0.05383744  0.87720864    -0.14800
H1441       H  0.97605136  0.02651859  0.85452053     0.11300
H1442       H  0.97391054  0.15353973  0.86617608     0.11300
H1443       H  0.53013616  0.15282708  0.89157540     0.11300
H1444       H  0.53258438  0.02581377  0.87979231     0.11300
C1445       C  0.75917656  0.96957130  0.72532239    -0.14800
C1446       C  0.72815696  0.98482639  0.72423185     0.07300
C1447       C  0.72293436  0.01557504  0.74617560    -0.14800
C1448       C  0.74831828  0.03083722  0.76883933    -0.14800
C1449       C  0.77935086  0.01569746  0.76984711     0.07300
C1450       C  0.78457684  0.98485598  0.74798727    -0.14800
H1451       H  0.76372710  0.94541321  0.70896746     0.11300
H1452       H  0.69911829  0.02708450  0.74651488     0.11300
H1453       H  0.74376324  0.05501376  0.78518437     0.11300
H1454       H  0.80840550  0.97340922  0.74763079     0.11300
C1455       C  0.65889247  0.96998746  0.80427430    -0.14800
C1456       C  0.63391469  0.97039172  0.77670234     0.07300
C1457       C  0.60972045  0.99935728  0.77549011    -0.14800
C1458       C  0.61057670  0.02727269  0.80151845    -0.14800
C1459       C  0.63559931  0.02646198  0.82905694     0.07300
C1460       C  0.65975579  0.99767484  0.83000144    -0.14800
H1461       H  0.67821671  0.94871351  0.80572317     0.11300
H1462       H  0.59047219  0.00090512  0.75415754     0.11300
H1463       H  0.59138442  0.04864973  0.80058522     0.11300
H1464       H  0.67931694  0.99623580  0.85105438     0.11300
C1465       C  0.66103974  0.02787432  0.55320734    -0.14800
C1466       C  0.63490476  0.02989877  0.52686811     0.07300
C1467       C  0.60948560  0.00299676  0.52670452    -0.14800
C1468       C  0.61022056  0.97484222  0.55256365    -0.14800
C1469       C  0.63635100  0.97331884  0.57890735     0.07300
C1470       C  0.66174387  0.99996606  0.57882076    -0.14800
H1471       H  0.68131775  0.04742350  0.55378784     0.11300
H1472       H  0.58926466  0.00333024  0.00636401     0.11300
H1473       H  0.59006724  0.95522151  0.55254378     0.11300
H1474       H  0.68211050  0.99958482  0.59902300     0.11300
C1475       C  0.78433587  0.01596594  0.99789195    -0.14800
C1476       C  0.77924496  0.98534602  0.51999850     0.07300
C1477       C  0.74836153  0.96983192  0.51878407    -0.14800
C1478       C  0.72298634  0.98459437  0.49572132    -0.14800
C1479       C  0.72807261  0.01521959  0.97360521     0.07300
C1480       C  0.75896063  0.03072365  0.97482178    -0.14800
H1481       H  0.80806826  0.02765320  0.99766244     0.11300
H1482       H  0.74392787  0.94575645  0.53526965     0.11300
H1483       H  0.69926694  0.97285913  0.49592807     0.11300
H1484       H  0.76340878  0.05476778  0.95831632     0.11300
C1485       C  0.89592068  0.00328897  0.96926556    -0.14800
C1486       C  0.87282996  0.97301161  0.96747615     0.07300
C1487       C  0.84824616  0.97180177  0.93955456    -0.14800
C1488       C  0.84682276  0.99973596  0.91392587    -0.14800
C1489       C  0.87007736  0.02957662  0.91522085     0.07300
C1490       C  0.89455198  0.03142912  0.94327156    -0.14800
H1491       H  0.91473959  0.00556705  0.99094279     0.11300
H1492       H  0.82970280  0.94955226  0.93767430     0.11300
H1493       H  0.82763735  0.99749547  0.89257038     0.11300
H1494       H  0.91302069  0.05370601  0.94458858     0.11300
C1495       C  0.89496997  0.96960103  0.69370296    -0.14800
C1496       C  0.87136978  0.97296662  0.66495112     0.07300
C1497       C  0.84907118  0.00415169  0.66312156    -0.14800
C1498       C  0.85048074  0.03172177  0.68897368    -0.14800
C1499       C  0.87404396  0.02881110  0.71770505     0.07300
C1500       C  0.89629660  0.99738852  0.71995281    -0.14800
H1501       H  0.91270185  0.94626113  0.69549699     0.11300
H1502       H  0.83054777  0.00764480  0.64126853     0.11300
H1503       H  0.83262994  0.05497388  0.68666525     0.11300
H1504       H  0.91430444  0.99384917  0.74223293     0.11300
C1505       C  0.75167129  0.84415187  0.58580019    -0.14800
C1506       C  0.78182181  0.84439247  0.60641907     0.07300
C1507       C  0.78321154  0.84184911  0.64172223    -0.14800
C1508       C  0.75520097  0.84176474  0.65612563    -0.14800
C1509       C  0.72508629  0.84455978  0.63559189     0.07300
C1510       C  0.72366411  0.84439379  0.60020896    -0.14800
H1511       H  0.74968358  0.84633043  0.55858840     0.11300
H1512       H  0.80604565  0.84193248  0.65838258     0.11300
H1513       H  0.75723463  0.84198766  0.68340306     0.11300
H1514       H  0.70087740  0.84649666  0.58358260     0.11300
C1515       C  0.98671433  0.87581528  0.61911609    -0.14800
C1516       C  0.97101819  0.91102080  0.60720071     0.07300
C1517       C  0.98827013  0.94668622  0.61080125    -0.14800
C1518       C  0.52054401  0.94704092  0.62570528    -0.14800
C1519       C  0.53623874  0.91176176  0.63750990     0.07300
C1520       C  0.51886801  0.87619380  0.63413373    -0.14800
H1521       H  0.97403473  0.84791094  0.61723413     0.11300
H1522       H  0.97682183  0.97435535  0.60209024     0.11300
H1523       H  0.53331071  0.97489010  0.62756741     0.11300
H1524       H  0.53020567  0.84846120  0.64283560     0.11300
C1525       C  0.63388396  0.24980586  0.53149284    -0.14800
C1526       C  0.62499859  0.28538722  0.51466677     0.07300
C1527       C  0.61988687  0.28559893  0.97887519    -0.14800
C1528       C  0.62349548  0.25114178  0.96042591    -0.14800
C1529       C  0.63234243  0.21555104  0.97726853     0.07300
C1530       C  0.63750173  0.21537313  0.51305523    -0.14800
H1531       H  0.63778807  0.24847242  0.55884204     0.11300
H1532       H  0.61288549  0.31251860  0.96491141     0.11300
H1533       H  0.61958822  0.25245041  0.93307514     0.11300
H1534       H  0.64448757  0.18846066  0.52704648     0.11300
C1535       C  0.88548674  0.28648782  0.76281763    -0.14800
C1536       C  0.88122098  0.28598775  0.72706392     0.07300
C1537       C  0.87330115  0.25017346  0.71032532    -0.14800
C1538       C  0.87003060  0.21570707  0.72886002    -0.14800
C1539       C  0.87454788  0.21614930  0.76462657     0.07300
C1540       C  0.88222223  0.25203236  0.78134464    -0.14800
H1541       H  0.89162369  0.31362824  0.77670221     0.11300
H1542       H  0.87003656  0.24865706  0.68300257     0.11300
H1543       H  0.86387158  0.18856416  0.71498560     0.11300
H1544       H  0.88550957  0.25355921  0.80866961     0.11300
C1545       C  0.76878589  0.37620934  0.63135110    -0.14800
C1546       C  0.78552733  0.41210756  0.63692157     0.07300
C1547       C  0.76921896  0.44768599  0.62737989    -0.14800
C1548       C  0.73691613  0.44731234  0.61263420    -0.14800
C1549       C  0.72027011  0.41134287  0.60692617     0.07300
C1550       C  0.73661353  0.37582501  0.61648100    -0.14800
H1551       H  0.78063419  0.34823239  0.63817558     0.11300
H1552       H  0.78148756  0.47582052  0.63101183     0.11300
H1553       H  0.72495522  0.47521848  0.60579035     0.11300
H1554       H  0.72444739  0.34762907  0.61282819     0.11300
C1555       C  0.97279136  0.34545785  0.59918895    -0.14800
C1556       C  0.97416520  0.34515671  0.63456349     0.07300
C1557       C  0.50421122  0.34174887  0.65513115    -0.14800
C1558       C  0.53224928  0.34165789  0.64081490    -0.14800
C1559       C  0.53094494  0.34461761  0.60556033     0.07300
C1560       C  0.00083340  0.34503479  0.58485896    -0.14800
H1561       H  0.95005346  0.34806538  0.58254122     0.11300
H1562       H  0.50619451  0.34159113  0.68240920     0.11300
H1563       H  0.55505781  0.34125226  0.65752172     0.11300
H1564       H  0.99893162  0.34758318  0.55767958     0.11300
C1565       C  0.87432554  0.75169880  0.96062010    -0.14800
C1566       C  0.88096541  0.71547293  0.97722325     0.07300
C1567       C  0.88421067  0.71459379  0.01291655    -0.14800
C1568       C  0.88120080  0.74907672  0.53152142    -0.14800
C1569       C  0.87479640  0.78535936  0.51493825     0.07300
C1570       C  0.87131164  0.78618339  0.97922621    -0.14800
H1571       H  0.87193480  0.75352120  0.93335666     0.11300
H1572       H  0.88933592  0.68711964  0.52668453     0.11300
H1573       H  0.88361748  0.74725431  0.55878621     0.11300
H1574       H  0.86617509  0.81365149  0.96545469     0.11300
C1575       C  0.86046092  0.52846299  0.80074492    -0.14800
C1576       C  0.88561796  0.52776659  0.82815550     0.07300
C1577       C  0.90990059  0.49918925  0.82890357    -0.14800
C1578       C  0.90894204  0.47145218  0.80320330    -0.14800
C1579       C  0.88373463  0.47158963  0.77585672     0.07300
C1580       C  0.85951412  0.50050371  0.77473562    -0.14800
H1581       H  0.84119479  0.54971308  0.79994387     0.11300
H1582       H  0.92958287  0.49787944  0.84983093     0.11300
H1583       H  0.92832783  0.45027976  0.80453985     0.11300
H1584       H  0.84012591  0.50190253  0.75353900     0.11300
C1585       C  0.86003672  0.50076580  0.52450746    -0.14800
C1586       C  0.88411212  0.52974052  0.52580375     0.07300
C1587       C  0.90911274  0.52998833  0.55334677    -0.14800
C1588       C  0.90996909  0.50232582  0.57911466    -0.14800
C1589       C  0.88578763  0.47373806  0.57820808     0.07300
C1590       C  0.86089012  0.47287598  0.55056112    -0.14800
H1591       H  0.84082572  0.49927389  0.50314623     0.11300
H1592       H  0.92838446  0.55121585  0.55480415     0.11300
H1593       H  0.92946782  0.50372044  0.60022388     0.11300
H1594       H  0.84173113  0.45157812  0.54961618     0.11300
C1595       C  0.97260293  0.48575689  0.99554407    -0.14800
C1596       C  0.97780370  0.51604642  0.97316742     0.07300
C1597       C  0.00876099  0.53122913  0.97414521    -0.14800
C1598       C  0.53413567  0.51630133  0.49713834    -0.14800
C1599       C  0.52893034  0.48588717  0.51941127     0.07300
C1600       C  0.49795129  0.47086853  0.51853959    -0.14800
H1601       H  0.94881357  0.47435951  0.99598438     0.11300
H1602       H  0.01326574  0.55506621  0.95746380     0.11300
H1603       H  0.55794402  0.52763813  0.49669395     0.11300
H1604       H  0.49342614  0.44703188  0.53521955     0.11300
C1605       C  0.63115035  0.75156449  0.78156547    -0.14800
C1606       C  0.62558359  0.71521487  0.76501293     0.07300
C1607       C  0.62329362  0.71419004  0.72941402    -0.14800
C1608       C  0.62639256  0.74867223  0.71084873    -0.14800
C1609       C  0.63194261  0.78503076  0.72742114     0.07300
C1610       C  0.63424860  0.78602115  0.76301476    -0.14800
H1611       H  0.63269093  0.75348697  0.80874429     0.11300
H1612       H  0.61892524  0.68660464  0.71571191     0.11300
H1613       H  0.62485131  0.74677660  0.68367248     0.11300
H1614       H  0.63859390  0.81359496  0.77674245     0.11300
C1615       C  0.64425493  0.53107010  0.94316010    -0.14800
C1616       C  0.62037771  0.52818289  0.91463815     0.07300
C1617       C  0.59776430  0.49754497  0.91301768    -0.14800
C1618       C  0.59921560  0.46989901  0.93883254    -0.14800
C1619       C  0.62314651  0.47223183  0.96727450     0.07300
C1620       C  0.64563378  0.50321851  0.96935731    -0.14800
H1621       H  0.66220700  0.55402006  0.94476538     0.11300
H1622       H  0.57901791  0.49450670  0.89132978     0.11300
H1623       H  0.58114848  0.44703148  0.93671146     0.11300
H1624       H  0.66390218  0.50633497  0.99144230     0.11300
C1625       C  0.59894275  0.53101600  0.68874191    -0.14800
C1626       C  0.62304040  0.52879106  0.71705865     0.07300
C1627       C  0.64576103  0.49793030  0.71900736    -0.14800
C1628       C  0.64436298  0.47000311  0.69288679    -0.14800
C1629       C  0.62023484  0.47267199  0.66455853     0.07300
C1630       C  0.59748044  0.50329703  0.66299515    -0.14800
H1631       H  0.58073391  0.55382460  0.68669245     0.11300
H1632       H  0.66421924  0.49494189  0.74095918     0.11300
H1633       H  0.66247392  0.44713462  0.69440677     0.11300
H1634       H  0.57858421  0.50623529  0.64141543     0.11300
C1635       C  0.73675330  0.62505254  0.86513401    -0.14800
C1636       C  0.72041541  0.58932477  0.85682151     0.07300
C1637       C  0.73707156  0.55343701  0.86386794    -0.14800
C1638       C  0.76935932  0.55334733  0.87871711    -0.14800
C1639       C  0.78564222  0.58914352  0.88701689     0.07300
C1640       C  0.76889567  0.62495777  0.88010726    -0.14800
H1641       H  0.72461110  0.65322824  0.86039852     0.11300
H1642       H  0.72512101  0.52538595  0.85804565     0.11300
H1643       H  0.78163115  0.52524532  0.88343199     0.11300
H1644       H  0.78073018  0.65308593  0.88590671     0.11300
C1645       C  0.00088499  0.65567674  0.83482259    -0.14800
C1646       C  0.53098648  0.65668564  0.85551239     0.07300
C1647       C  0.53221081  0.66020585  0.89072626    -0.14800
C1648       C  0.50413715  0.66015215  0.90503435    -0.14800
C1649       C  0.97411975  0.65621953  0.88450792     0.07300
C1650       C  0.97282201  0.65527874  0.84914162    -0.14800
H1651       H  0.99903508  0.65263513  0.80768377     0.11300
H1652       H  0.55500721  0.66106083  0.90742602     0.11300
H1653       H  0.50609200  0.66080479  0.93230372     0.11300
H1654       H  0.95013408  0.65222143  0.83250449     0.11300
C1655       C  0.49761826  0.53142513  0.76838975    -0.14800
C1656       C  0.52860923  0.51608571  0.76944681     0.07300
C1657       C  0.53374401  0.48533667  0.74747211    -0.14800
C1658       C  0.00834569  0.47033957  0.72464912    -0.14800
C1659       C  0.97736757  0.48573065  0.72350681     0.07300
C1660       C  0.97220185  0.51639255  0.74557962    -0.14800
H1661       H  0.49312955  0.55555098  0.78480242     0.11300
H1662       H  0.55753645  0.47374058  0.74713070     0.11300
H1663       H  0.01287205  0.44626219  0.70820194     0.11300
H1664       H  0.94841631  0.52801211  0.74588750     0.11300
loop_ 
_geom_bond_atom_site_label_1 
_geom_bond_atom_site_label_2 
_geom_bond_distance 
_geom_bond_site_symmetry_2 
_ccdc_geom_bond_type 
O1          Cr19   1.974       .  S
O1            C9   1.257       .  A
O2          Cr19   2.050       .  S
O2            C3   1.276       .  A
C3            O4   1.252       .  A
C3          C368   1.474       .  S
O4          Cr20   1.931       .  S
O5          Cr20   2.023       .  S
O5            C6   1.267       .  A
C6            O7   1.250       .  A
C6          C408   1.464       .  S
O7          Cr21   1.950       .  S
O8          Cr21   2.022       .  S
O8            C9   1.268       .  A
C9          C398   1.490       .  S
O10         Cr19   2.056       .  S
O10          C18   1.280       .  A
O11         Cr19   1.970       .  S
O11          C12   1.261       .  A
C12          O13   1.270       .  A
C12         C388   1.484       .  S
O13         Cr20   2.023       .  S
O14         Cr20   1.962       .  S
O14          C15   1.259       .  A
C15          O16   1.273       .  A
C15         C378   1.476       .  S
O16         Cr21   2.023       .  S
O17         Cr21   1.938       .  S
O17          C18   1.252       .  A
C18         C358   1.485       .  S
Cr19         O22   1.765       .  S
Cr20         O22   1.763       .  S
Cr21         O22   1.755       .  S
O23         Cr41   1.973       .  S
O23          C31   1.257       .  A
O24         Cr41   2.052       .  S
O24          C25   1.276       .  A
C25          O26   1.252       .  A
C25         C328   1.472       .  S
O26         Cr42   1.931       .  S
O27         Cr42   2.020       .  S
O27          C28   1.266       .  A
C28          O29   1.250       .  A
C28         C348   1.462       .  S
O29         Cr43   1.950       .  S
O30         Cr43   2.023       .  S
O30          C31   1.268       .  A
C31         C401   1.492       .  S
O32         Cr41   2.058       .  S
O32          C40   1.281       .  A
O33         Cr41   1.971       .  S
O33          C34   1.260       .  A
C34          O35   1.269       .  A
C34         C391   1.484       .  S
O35         Cr42   2.021       .  S
O36         Cr42   1.959       .  S
O36         C453   1.259       .  A
C37          O38   1.273       .  A
C37         O452   1.259       .  A
C37         C338   1.476   1_556  S
O38        Cr459   2.025       .  S
O39         Cr43   1.938       .  S
O39          C40   1.252       .  A
C40         C318   1.487       .  S
Cr41         O44   1.763       .  S
Cr42         O44   1.763       .  S
Cr43        O454   2.025       .  S
Cr43         O44   1.755       .  S
O45         Cr63   2.057       .  S
O45          C53   1.280       .  A
O46         Cr63   1.969       .  S
O46          C47   1.260       .  A
C47          O48   1.269       .  A
C47         C298   1.484       .  S
O48         Cr64   2.023       .  S
O49         Cr64   1.961       .  S
O49          C50   1.259       .  A
C50          O51   1.273       .  A
C50         C331   1.476       .  S
O51         Cr65   2.024       .  S
O52         Cr65   1.937       .  S
O52          C53   1.252       .  A
C53         C288   1.487       .  S
O54         Cr63   1.972       .  S
O54          C62   1.256       .  A
O55         Cr63   2.050       .  S
O55          C56   1.276       .  A
C56          O57   1.252       .  A
C56         C341   1.471       .  S
O57         Cr64   1.931       .  S
O58         Cr64   2.023       .  S
O58          C59   1.267       .  A
C59          O60   1.251       .  A
C59         C411   1.465       .  S
O60         Cr65   1.951       .  S
O61         Cr65   2.022       .  S
O61          C62   1.268       .  A
C62         C308   1.490       .  S
Cr63         O66   1.764       .  S
Cr64         O66   1.764       .  S
Cr65         O66   1.755       .  S
O67         Cr85   2.059       .  S
O67          C75   1.281       .  A
O68         Cr85   1.971       .  S
O68          C69   1.261       .  A
C69          O70   1.269       .  A
C69         C301   1.483       .  S
O70         Cr86   2.019       .  S
O71         Cr86   1.961       .  S
O71         C488   1.259   1_554  A
C72          O73   1.273       .  A
C72         O487   1.259       .  A
C72         C371   1.475       .  S
O73        Cr503   2.022       .  S
O74         Cr87   1.938       .  S
O74          C75   1.253       .  A
C75         C278   1.488       .  S
O76         Cr85   1.973       .  S
O76          C84   1.257       .  A
O77         Cr85   2.053       .  S
O77          C78   1.276       .  A
C78          O79   1.252       .  A
C78         C381   1.474       .  S
O79         Cr86   1.931       .  S
O80         Cr86   2.019       .  S
O80          C81   1.265       .  A
C81          O82   1.250       .  A
C81         C351   1.462       .  S
O82         Cr87   1.950       .  S
O83         Cr87   2.019       .  S
O83          C84   1.267       .  A
C84         C311   1.489       .  S
Cr85         O88   1.765       .  S
Cr86         O88   1.764       .  S
Cr87        O489   2.022   1_554  S
Cr87         O88   1.755       .  S
O89        Cr107   2.060       .  S
O89          C97   1.281       .  A
O90        Cr107   1.971       .  S
O90          C91   1.261       .  A
C91          O92   1.270       .  A
C91         C268   1.484       .  S
O92        Cr108   2.022       .  S
O93        Cr108   1.962       .  S
O93         C510   1.259   1_554  A
C94          O95   1.273       .  A
C94         O509   1.259       .  A
C94         C238   1.478       .  S
O95        Cr525   2.025       .  S
O96        Cr109   1.938       .  S
O96          C97   1.253       .  A
C97         C321   1.488       .  S
O98        Cr107   1.973       .  S
O98         C106   1.257       .  A
O99        Cr107   2.054       .  S
O99         C100   1.276       .  A
C100        O101   1.251       .  A
C100        C248   1.476       .  S
O101       Cr108   1.930       .  S
O102       Cr108   2.021       .  S
O102        C103   1.266       .  A
C103        O104   1.250       .  A
C103        C228   1.463       .  S
O104       Cr109   1.949       .  S
O105       Cr109   2.022       .  S
O105        C106   1.268       .  A
C106        C258   1.490       .  S
Cr107       O110   1.765       .  S
Cr108       O110   1.764       .  S
Cr109       O511   2.025   1_554  S
Cr109       O110   1.756       .  S
O111       Cr129   2.057       .  S
O111        C119   1.280       .  A
O112       Cr129   1.972       .  S
O112        C113   1.260       .  A
C113        O114   1.269       .  A
C113        C271   1.485       .  S
O114       Cr130   2.024       .  S
O115       Cr130   1.961       .  S
O115        C116   1.259       .  A
C116        O117   1.273       .  A
C116        C208   1.476       .  S
O117       Cr131   2.025       .  S
O118       Cr131   1.937       .  S
O118        C119   1.252       .  A
C119        C361   1.486       .  S
O120       Cr129   1.973       .  S
O120        C128   1.257       .  A
O121       Cr129   2.051       .  S
O121        C122   1.276       .  A
C122        O123   1.252       .  A
C122        C221   1.472       .  S
O123       Cr130   1.935       .  S
O124       Cr130   2.022       .  S
O124        C125   1.267       .  A
C125        O126   1.250       .  A
C125        C198   1.464       .  S
O126       Cr131   1.950       .  S
O127       Cr131   2.023       .  S
O127        C128   1.269       .  A
C128        C261   1.491       .  S
Cr129       O132   1.763       .  S
Cr130       O132   1.763       .  S
Cr131       O132   1.755       .  S
O133       Cr151   1.974       .  S
O133        C141   1.257       .  A
O134       Cr151   2.052       .  S
O134        C135   1.277       .  A
C135        O136   1.252       .  A
C135        C211   1.472       .  S
O136       Cr152   1.931       .  S
O137       Cr152   2.021       .  S
O137        C138   1.266       .  A
C138        O139   1.250       .  A
C138        C231   1.463       .  S
O139       Cr153   1.951       .  S
O140       Cr153   2.022       .  S
O140        C141   1.268       .  A
C141        C178   1.491       .  S
O142       Cr151   2.059       .  S
O142        C150   1.281       .  A
O143       Cr151   1.972       .  S
O143        C144   1.260       .  A
C144        O145   1.269       .  A
C144        C191   1.485       .  S
O145       Cr152   2.023       .  S
O146       Cr152   1.962       .  S
O146        C563   1.259       .  A
C147        O148   1.274       .  A
C147        O562   1.259       .  A
C147        C218   1.478   1_556  S
O148       Cr569   2.027       .  S
O149       Cr153   1.936       .  S
O149        C150   1.253       .  A
C150        C281   1.488       .  S
Cr151       O154   1.764       .  S
Cr152       O154   1.764       .  S
Cr153       O564   2.027       .  S
Cr153       O154   1.755       .  S
O155       Cr173   1.972       .  S
O155        C163   1.257       .  A
O156       Cr173   2.052       .  S
O156        C157   1.276       .  A
C157        O158   1.252       .  A
C157        C241   1.474       .  S
O158       Cr174   1.932       .  S
O159       Cr174   2.021       .  S
O159        C160   1.266       .  A
C160        O161   1.250       .  A
C160        C201   1.463       .  S
O161       Cr175   1.950       .  S
O162       Cr175   2.021       .  S
O162        C163   1.268       .  A
C163        C181   1.489       .  S
O164       Cr173   2.058       .  S
O164        C172   1.281       .  A
O165       Cr173   1.971       .  S
O165        C166   1.261       .  A
C166        O167   1.270       .  A
C166        C188   1.485       .  S
O167       Cr174   2.022       .  S
O168       Cr174   1.962       .  S
O168        C169   1.259       .  A
C169        O170   1.273       .  A
C169        C251   1.477       .  S
O170       Cr175   2.023       .  S
O171       Cr175   1.938       .  S
O171        C172   1.253       .  A
C172        C291   1.487       .  S
Cr173       O176   1.766       .  S
Cr174       O176   1.764       .  S
Cr175       O176   1.756       .  S
C177        C178   1.410       .  A
C177        C182   1.403       .  A
C177        H183   1.083       .  S
C178        C179   1.405       .  A
C179        C180   1.402       .  A
C179        H184   1.083       .  S
C180        C181   1.409       .  A
C180        H185   1.083       .  S
C181        C182   1.405       .  A
C182        H186   1.083       .  S
C187        C188   1.406       .  A
C187       C1024   1.401       .  A
C187        H193   1.083       .  S
C188        C189   1.406       .  A
C189       C1022   1.398       .  A
C189        H194   1.083       .  S
C190        C191   1.406       .  A
C190       C1021   1.398   1_455  A
C190        H195   1.083       .  S
C191        C192   1.407       .  A
C192       C1019   1.401   1_455  A
C192        H196   1.083       .  S
C197        C198   1.406       .  A
C197        C202   1.392       .  A
C197        H203   1.084       .  S
C198        C199   1.402   1_565  A
C199        C200   1.391       .  A
C199        H204   1.083       .  S
C200        C201   1.405       .  A
C200        H205   1.084       .  S
C201        C202   1.402   1_545  A
C202        H206   1.084       .  S
C207        C208   1.401       .  A
C207        C212   1.389       .  A
C207        H213   1.083       .  S
C208        C209   1.411       .  A
C209        C210   1.403   1_565  A
C209        H214   1.083   1_565  S
C210        C211   1.401       .  A
C210        H215   1.083       .  S
C211        C212   1.407   1_545  A
C212        H216   1.084       .  S
C217        C218   1.402       .  A
C217        C222   1.390   1_545  A
C217        H223   1.083       .  S
C218        C219   1.411       .  A
C219        C220   1.403   1_545  A
C219        H640   1.083       .  S
C220        C221   1.401       .  A
C220        H225   1.083       .  S
C221        C222   1.406       .  A
C222        H226   1.083       .  S
H224        C635   1.083       .  S
C227        C232   1.391       .  A
C227        C644   1.402   1_545  A
C227        H233   1.084       .  S
C228        C229   1.405       .  A
C228        C643   1.402   1_564  A
C229        C230   1.391   1_554  A
C229        H234   1.084       .  S
C230        C647   1.402   1_565  A
C230        H235   1.083       .  S
C231        C232   1.405       .  A
C231        C646   1.402   1_545  A
C232        H236   1.084       .  S
C237        C238   1.411   1_545  A
C237        C242   1.404       .  A
C237        H243   1.083       .  S
C238        C239   1.400       .  A
C239        C240   1.389       .  A
C239        H244   1.083       .  S
C240        C241   1.407   1_565  A
C240        H245   1.083       .  S
C241        C242   1.402       .  A
C242        H246   1.082       .  S
C247        C248   1.402       .  A
C247        C252   1.405       .  A
C247        H253   1.083       .  S
C248        C249   1.408   1_565  A
C249        C250   1.388       .  A
C249        H254   1.083       .  S
C250        C251   1.400       .  A
C250        H255   1.083       .  S
C251        C252   1.411   1_545  A
C252        H256   1.083       .  S
C257        C258   1.405       .  A
C257        C262   1.403       .  A
C257        H263   1.083       .  S
C258        C259   1.410       .  A
C259        C260   1.403       .  A
C259        H264   1.083       .  S
C260        C261   1.405       .  A
C260        H265   1.083       .  S
C261        C262   1.410       .  A
C262        H266   1.083       .  S
C267        C268   1.406       .  A
C267       C1104   1.398       .  A
C267        H273   1.083       .  S
C268        C269   1.406       .  A
C269       C1102   1.401       .  A
C269        H274   1.083       .  S
C270        C271   1.407       .  A
C270       C1101   1.401   1_455  A
C270        H275   1.083       .  S
C271        C272   1.406       .  A
C272       C1099   1.398   1_455  A
C272        H276   1.083       .  S
C277        C278   1.398       .  A
C277        C282   1.400       .  A
C277        H283   1.083       .  S
C278        C695   1.416   1_554  A
C279        C280   1.401       .  A
C279        C694   1.416       .  A
C279        H284   1.083       .  S
C280        C281   1.399       .  A
C280        H285   1.083       .  S
C281        C698   1.416       .  A
C282        C697   1.416   1_554  A
C282        H286   1.083       .  S
C287        C288   1.415       .  A
C287        C292   1.400       .  A
C287        H293   1.083       .  S
C288        C289   1.399       .  A
C289        C290   1.400       .  A
C289        H294   1.083       .  S
C290        C291   1.415       .  A
C290        H295   1.083       .  S
C291        C292   1.399       .  A
C292        H296   1.083       .  S
C297        C298   1.406       .  A
C297        C302   1.397       .  A
C297        H303   1.083       .  S
C298        C299   1.406       .  A
C299        C300   1.401       .  A
C299        H304   1.083       .  S
C300        C301   1.407       .  A
C300        H305   1.083       .  S
C301        C302   1.405       .  A
C302        H306   1.083       .  S
C307        C308   1.410       .  A
C307        C312   1.402       .  A
C307        H313   1.083       .  S
C308       C1141   1.405       .  A
C309        C310   1.402       .  A
C309       C1140   1.405   1_455  A
C309        H314   1.083       .  S
C310        C311   1.409       .  A
C310        H315   1.083       .  S
C311       C1144   1.405       .  A
C312       C1143   1.405       .  A
C312        H316   1.083       .  S
C317        C318   1.399       .  A
C317        C322   1.400       .  A
C317        H323   1.083       .  S
C318        C319   1.415       .  A
C319        C736   1.400       .  A
C319        H740   1.083       .  S
C320        C321   1.399       .  A
C320        C735   1.400       .  A
C320        H325   1.083       .  S
C321        C738   1.415   1_554  A
C322        C737   1.415       .  A
C322        H326   1.083       .  S
H324        C735   1.083       .  S
C327        C328   1.401       .  A
C327        C332   1.403       .  A
C327        H333   1.083       .  S
C328        C329   1.406       .  A
C329        C330   1.389       .  A
C329        H334   1.084       .  S
C330        C331   1.401       .  A
C330        H335   1.083       .  S
C331        C332   1.411       .  A
C332        H336   1.083       .  S
C337        C338   1.411       .  A
C337        C342   1.402       .  A
C337        H343   1.083       .  S
C338        C339   1.401       .  A
C339        C340   1.389       .  A
C339        H344   1.083       .  S
C340        C341   1.406       .  A
C340        H345   1.084       .  S
C341        C342   1.401       .  A
C342        H346   1.083       .  S
C347        C348   1.402       .  A
C347       C1600   1.390       .  A
C347        H353   1.084       .  S
C348        C349   1.405       .  A
C349       C1598   1.391       .  A
C349        H354   1.084       .  S
C350        C351   1.402   1_556  A
C350       C1597   1.391       .  A
C350        H355   1.083       .  S
C351        C352   1.404   1_455  A
C352       C1595   1.390   1_554  A
C352        H356   1.084       .  S
C357        C358   1.398       .  A
C357        C362   1.399       .  A
C357        H363   1.083       .  S
C358        C359   1.415       .  A
C359        C360   1.400       .  A
C359        H364   1.083       .  S
C360        C361   1.399       .  A
C360        H365   1.083       .  S
C361        C362   1.415       .  A
C362        H366   1.083       .  S
C367        C368   1.402       .  A
C367        C372   1.404       .  A
C367        H373   1.082       .  S
C368        C369   1.407       .  A
C369        C370   1.387       .  A
C369        H374   1.083       .  S
C370        C371   1.400       .  A
C370        H375   1.083       .  S
C371        C372   1.411       .  A
C372        H376   1.083       .  S
C377        C378   1.400       .  A
C377        C382   1.388       .  A
C377        H383   1.083       .  S
C378        C379   1.411       .  A
C379        C380   1.404       .  A
C379        H384   1.083       .  S
C380        C381   1.402       .  A
C380        H385   1.083       .  S
C381        C382   1.407       .  A
C382        H386   1.083       .  S
C387        C388   1.406       .  A
C387        C392   1.397       .  A
C387        H393   1.083       .  S
C388        C389   1.407       .  A
C389        C390   1.401       .  A
C389        H394   1.083       .  S
C390        C391   1.407       .  A
C390        H395   1.083       .  S
C391        C392   1.406       .  A
C392        H396   1.083       .  S
C397        C402   1.403       .  A
C397       C1230   1.405       .  A
C397        H403   1.083       .  S
C398        C399   1.409       .  A
C398       C1229   1.405       .  A
C399        C400   1.403       .  A
C399        H404   1.083       .  S
C400       C1233   1.405   1_455  A
C400        H405   1.083       .  S
C401        C402   1.410       .  A
C401       C1232   1.405       .  A
C402        H406   1.083       .  S
C407        C408   1.406   1_655  A
C407       C1244   1.392       .  A
C407        H413   1.083       .  S
C408        C409   1.402       .  A
C409       C1242   1.391       .  A
C409        H414   1.083       .  S
C410        C411   1.405       .  A
C410       C1241   1.391       .  A
C410        H415   1.084       .  S
C411        C412   1.402       .  A
C412       C1239   1.392       .  A
C412        H416   1.083       .  S
O417       Cr435   1.974       .  S
O417        C425   1.257       .  A
O418       Cr435   2.050       .  S
O418        C419   1.276       .  A
C419        O420   1.252       .  A
C419        C784   1.474       .  S
O420       Cr436   1.931       .  S
O421       Cr436   2.023       .  S
O421        C422   1.267       .  A
C422        O423   1.250       .  A
C422        C824   1.464       .  S
O423       Cr437   1.950       .  S
O424       Cr437   2.022       .  S
O424        C425   1.268       .  A
C425        C814   1.490       .  S
O426       Cr435   2.056       .  S
O426        C434   1.280       .  A
O427       Cr435   1.970       .  S
O427        C428   1.261       .  A
C428        O429   1.270       .  A
C428        C804   1.484       .  S
O429       Cr436   2.023       .  S
O430       Cr436   1.962       .  S
O430        C431   1.259       .  A
C431        O432   1.273       .  A
C431        C794   1.476       .  S
O432       Cr437   2.023       .  S
O433       Cr437   1.938       .  S
O433        C434   1.252       .  A
C434        C774   1.485       .  S
Cr435       O438   1.765       .  S
Cr436       O438   1.763       .  S
Cr437       O438   1.755       .  S
O439       Cr457   1.973       .  S
O439        C447   1.257       .  A
O440       Cr457   2.052       .  S
O440        C441   1.276       .  A
C441        O442   1.252       .  A
C441        C744   1.472       .  S
O442       Cr458   1.931       .  S
O443       Cr458   2.020       .  S
O443        C444   1.266       .  A
C444        O445   1.250       .  A
C444        C764   1.462       .  S
O445       Cr459   1.950       .  S
O446       Cr459   2.023       .  S
O446        C447   1.268       .  A
C447        C817   1.492       .  S
O448       Cr457   2.058       .  S
O448        C456   1.281       .  A
O449       Cr457   1.971       .  S
O449        C450   1.260       .  A
C450        O451   1.269       .  A
C450        C807   1.484       .  S
O451       Cr458   2.021       .  S
O452       Cr458   1.959       .  S
C453        O454   1.273       .  A
C453        C754   1.476       .  S
O455       Cr459   1.938       .  S
O455        C456   1.252       .  A
C456        C734   1.487       .  S
Cr457       O460   1.763       .  S
Cr458       O460   1.763       .  S
Cr459       O460   1.755       .  S
O461       Cr479   2.057       .  S
O461        C469   1.280       .  A
O462       Cr479   1.969       .  S
O462        C463   1.260       .  A
C463        O464   1.269       .  A
C463        C714   1.484       .  S
O464       Cr480   2.023       .  S
O465       Cr480   1.961       .  S
O465        C466   1.259       .  A
C466        O467   1.273       .  A
C466        C747   1.476       .  S
O467       Cr481   2.024       .  S
O468       Cr481   1.937       .  S
O468        C469   1.252       .  A
C469        C704   1.487       .  S
O470       Cr479   1.972       .  S
O470        C478   1.256       .  A
O471       Cr479   2.050       .  S
O471        C472   1.276       .  A
C472        O473   1.252       .  A
C472        C757   1.471       .  S
O473       Cr480   1.931       .  S
O474       Cr480   2.023       .  S
O474        C475   1.267       .  A
C475        O476   1.251       .  A
C475        C827   1.465       .  S
O476       Cr481   1.951       .  S
O477       Cr481   2.022       .  S
O477        C478   1.268       .  A
C478        C724   1.490       .  S
Cr479       O482   1.764       .  S
Cr480       O482   1.764       .  S
Cr481       O482   1.755       .  S
O483       Cr501   2.059       .  S
O483        C491   1.281       .  A
O484       Cr501   1.971       .  S
O484        C485   1.261       .  A
C485        O486   1.269       .  A
C485        C717   1.483       .  S
O486       Cr502   2.019       .  S
O487       Cr502   1.961       .  S
C488        O489   1.273       .  A
C488        C787   1.475       .  S
O490       Cr503   1.938       .  S
O490        C491   1.253       .  A
C491        C694   1.488       .  S
O492       Cr501   1.973       .  S
O492        C500   1.257       .  A
O493       Cr501   2.053       .  S
O493        C494   1.276       .  A
C494        O495   1.252       .  A
C494        C797   1.474       .  S
O495       Cr502   1.931       .  S
O496       Cr502   2.019       .  S
O496        C497   1.265       .  A
C497        O498   1.250       .  A
C497        C767   1.462       .  S
O498       Cr503   1.950       .  S
O499       Cr503   2.019       .  S
O499        C500   1.267       .  A
C500        C727   1.489       .  S
Cr501       O504   1.765       .  S
Cr502       O504   1.764       .  S
Cr503       O504   1.755       .  S
O505       Cr523   2.060       .  S
O505        C513   1.281       .  A
O506       Cr523   1.971       .  S
O506        C507   1.261       .  A
C507        O508   1.270       .  A
C507        C684   1.484       .  S
O508       Cr524   2.022       .  S
O509       Cr524   1.962       .  S
C510        O511   1.273       .  A
C510        C654   1.478       .  S
O512       Cr525   1.938       .  S
O512        C513   1.253       .  A
C513        C737   1.488       .  S
O514       Cr523   1.973       .  S
O514        C522   1.257       .  A
O515       Cr523   2.054       .  S
O515        C516   1.276       .  A
C516        O517   1.251       .  A
C516        C664   1.476       .  S
O517       Cr524   1.930       .  S
O518       Cr524   2.021       .  S
O518        C519   1.266       .  A
C519        O520   1.250       .  A
C519        C644   1.463       .  S
O520       Cr525   1.949       .  S
O521       Cr525   2.022       .  S
O521        C522   1.268       .  A
C522        C674   1.490       .  S
Cr523       O526   1.765       .  S
Cr524       O526   1.764       .  S
Cr525       O526   1.756       .  S
O527       Cr545   2.057       .  S
O527        C535   1.280       .  A
O528       Cr545   1.972       .  S
O528        C529   1.260       .  A
C529        O530   1.269       .  A
C529        C687   1.485       .  S
O530       Cr546   2.024       .  S
O531       Cr546   1.961       .  S
O531        C532   1.259       .  A
C532        O533   1.273       .  A
C532        C624   1.476       .  S
O533       Cr547   2.025       .  S
O534       Cr547   1.937       .  S
O534        C535   1.252       .  A
C535        C777   1.486       .  S
O536       Cr545   1.973       .  S
O536        C544   1.257       .  A
O537       Cr545   2.051       .  S
O537        C538   1.276       .  A
C538        O539   1.252       .  A
C538        C637   1.472       .  S
O539       Cr546   1.935       .  S
O540       Cr546   2.022       .  S
O540        C541   1.267       .  A
C541        O542   1.250       .  A
C541        C614   1.464       .  S
O542       Cr547   1.950       .  S
O543       Cr547   2.023       .  S
O543        C544   1.269       .  A
C544        C677   1.491       .  S
Cr545       O548   1.763       .  S
Cr546       O548   1.763       .  S
Cr547       O548   1.755       .  S
O549       Cr567   1.974       .  S
O549        C557   1.257       .  A
O550       Cr567   2.052       .  S
O550        C551   1.277       .  A
C551        O552   1.252       .  A
C551        C627   1.472       .  S
O552       Cr568   1.931       .  S
O553       Cr568   2.021       .  S
O553        C554   1.266       .  A
C554        O555   1.250       .  A
C554        C647   1.463       .  S
O555       Cr569   1.951       .  S
O556       Cr569   2.022       .  S
O556        C557   1.268       .  A
C557        C594   1.491       .  S
O558       Cr567   2.059       .  S
O558        C566   1.281       .  A
O559       Cr567   1.972       .  S
O559        C560   1.260       .  A
C560        O561   1.269       .  A
C560        C607   1.485       .  S
O561       Cr568   2.023       .  S
O562       Cr568   1.962       .  S
C563        O564   1.274       .  A
C563        C634   1.478       .  S
O565       Cr569   1.936       .  S
O565        C566   1.253       .  A
C566        C697   1.488       .  S
Cr567       O570   1.764       .  S
Cr568       O570   1.764       .  S
Cr569       O570   1.755       .  S
O571       Cr589   1.972       .  S
O571        C579   1.257       .  A
O572       Cr589   2.052       .  S
O572        C573   1.276       .  A
C573        O574   1.252       .  A
C573        C657   1.474       .  S
O574       Cr590   1.932       .  S
O575       Cr590   2.021       .  S
O575        C576   1.266       .  A
C576        O577   1.250       .  A
C576        C617   1.464       .  S
O577       Cr591   1.950       .  S
O578       Cr591   2.021       .  S
O578        C579   1.268       .  A
C579        C597   1.489       .  S
O580       Cr589   2.058       .  S
O580        C588   1.281       .  A
O581       Cr589   1.971       .  S
O581        C582   1.261       .  A
C582        O583   1.270       .  A
C582        C604   1.485       .  S
O583       Cr590   2.022       .  S
O584       Cr590   1.962       .  S
O584        C585   1.259       .  A
C585        O586   1.273       .  A
C585        C667   1.477       .  S
O586       Cr591   2.023       .  S
O587       Cr591   1.938       .  S
O587        C588   1.253       .  A
C588        C707   1.487       .  S
Cr589       O592   1.766       .  S
Cr590       O592   1.764       .  S
Cr591       O592   1.756       .  S
C593        C594   1.410       .  A
C593        C598   1.403       .  A
C593        H599   1.083       .  S
C594        C595   1.405       .  A
C595        C596   1.402       .  A
C595        H600   1.083       .  S
C596        C597   1.409       .  A
C596        H601   1.083       .  S
C597        C598   1.405       .  A
C598        H602   1.083       .  S
C603        C604   1.406       .  A
C603       C1440   1.401       .  A
C603        H609   1.083       .  S
C604        C605   1.406       .  A
C605       C1438   1.398       .  A
C605        H610   1.083       .  S
C606       C1437   1.398   1_455  A
C606        C607   1.406       .  A
C606        H611   1.083       .  S
C607        C608   1.407       .  A
C608       C1435   1.401   1_455  A
C608        H612   1.083       .  S
C613        C614   1.406       .  A
C613        C618   1.392       .  A
C613        H619   1.084       .  S
C614        C615   1.402   1_565  A
C615        C616   1.391       .  A
C615        H620   1.083       .  S
C616        C617   1.405       .  A
C616        H621   1.084       .  S
C617        C618   1.402   1_545  A
C618        H622   1.083       .  S
C623        C624   1.401       .  A
C623        C628   1.389       .  A
C623        H629   1.083       .  S
C624        C625   1.411       .  A
C625        C626   1.403   1_565  A
C625        H630   1.083   1_565  S
C626        C627   1.401       .  A
C626        H631   1.083       .  S
C627        C628   1.407   1_545  A
C628        H632   1.084       .  S
C633        C634   1.402       .  A
C633        C638   1.390   1_545  A
C633        H639   1.083       .  S
C634        C635   1.411       .  A
C635        C636   1.403   1_545  A
C636        C637   1.401       .  A
C636        H641   1.083       .  S
C637        C638   1.406       .  A
C638        H642   1.084       .  S
C643        C648   1.391       .  A
C643        H649   1.083       .  S
C644        C645   1.405       .  A
C645        C646   1.391       .  A
C645        H650   1.084       .  S
C646        H651   1.083       .  S
C647        C648   1.405       .  A
C648        H652   1.084       .  S
C653        C654   1.411   1_545  A
C653        C658   1.404       .  A
C653        H659   1.083       .  S
C654        C655   1.400       .  A
C655        C656   1.389       .  A
C655        H660   1.083       .  S
C656        C657   1.407   1_565  A
C656        H661   1.083       .  S
C657        C658   1.402       .  A
C658        H662   1.083       .  S
C663        C664   1.402       .  A
C663        C668   1.405       .  A
C663        H669   1.082       .  S
C664        C665   1.408   1_565  A
C665        C666   1.388       .  A
C665        H670   1.083       .  S
C666        C667   1.400       .  A
C666        H671   1.083       .  S
C667        C668   1.411   1_545  A
C668        H672   1.083       .  S
C673        C674   1.405       .  A
C673        C678   1.403       .  A
C673        H679   1.083       .  S
C674        C675   1.410       .  A
C675        C676   1.403       .  A
C675        H680   1.083       .  S
C676        C677   1.405       .  A
C676        H681   1.083       .  S
C677        C678   1.410       .  A
C678        H682   1.083       .  S
C683        C684   1.406       .  A
C683       C1520   1.398       .  A
C683        H689   1.083       .  S
C684        C685   1.406       .  A
C685       C1518   1.401       .  A
C685        H690   1.083       .  S
C686       C1517   1.401   1_455  A
C686        C687   1.407       .  A
C686        H691   1.083       .  S
C687        C688   1.406       .  A
C688       C1515   1.398   1_455  A
C688        H692   1.083       .  S
C693        C694   1.398       .  A
C693        C698   1.400       .  A
C693        H699   1.083       .  S
C695        C696   1.401       .  A
C695        H700   1.083       .  S
C696        C697   1.399       .  A
C696        H701   1.083       .  S
C698        H702   1.083       .  S
C703        C704   1.415       .  A
C703        C708   1.400       .  A
C703        H709   1.083       .  S
C704        C705   1.399       .  A
C705        C706   1.400       .  A
C705        H710   1.083       .  S
C706        C707   1.415       .  A
C706        H711   1.083       .  S
C707        C708   1.399       .  A
C708        H712   1.083       .  S
C713        C714   1.406       .  A
C713        C718   1.397       .  A
C713        H719   1.083       .  S
C714        C715   1.406       .  A
C715        C716   1.401       .  A
C715        H720   1.083       .  S
C716        C717   1.407       .  A
C716        H721   1.083       .  S
C717        C718   1.405       .  A
C718        H722   1.083       .  S
C723        C724   1.410       .  A
C723        C728   1.402       .  A
C723        H729   1.083       .  S
C724       C1557   1.405       .  A
C725       C1556   1.405   1_455  A
C725        C726   1.402       .  A
C725        H730   1.083       .  S
C726        C727   1.409       .  A
C726        H731   1.083       .  S
C727       C1560   1.405       .  A
C728       C1559   1.405       .  A
C728        H732   1.083       .  S
C733        C734   1.399       .  A
C733        C738   1.400       .  A
C733        H739   1.083       .  S
C734        C735   1.415   1_556  A
C736        C737   1.399       .  A
C736        H741   1.083       .  S
C738        H742   1.083       .  S
C743        C744   1.401       .  A
C743        C748   1.403       .  A
C743        H749   1.083       .  S
C744        C745   1.406       .  A
C745        C746   1.389       .  A
C745        H750   1.084       .  S
C746        C747   1.401       .  A
C746        H751   1.083       .  S
C747        C748   1.411       .  A
C748        H752   1.083       .  S
C753        C754   1.411       .  A
C753        C758   1.402       .  A
C753        H759   1.083       .  S
C754        C755   1.401       .  A
C755        C756   1.389       .  A
C755        H760   1.083       .  S
C756        C757   1.406       .  A
C756        H761   1.084       .  S
C757        C758   1.401       .  A
C758        H762   1.083       .  S
C763        C764   1.402       .  A
C763       C1184   1.390   1_556  A
C763        H769   1.084       .  S
C764        C765   1.405       .  A
C765       C1182   1.391       .  A
C765        H770   1.083       .  S
C766       C1181   1.391       .  A
C766        C767   1.402       .  A
C766        H771   1.084       .  S
C767        C768   1.404   1_455  A
C768       C1179   1.390       .  A
C768        H772   1.084       .  S
C773        C774   1.398       .  A
C773        C778   1.399       .  A
C773        H779   1.083       .  S
C774        C775   1.415       .  A
C775        C776   1.400       .  A
C775        H780   1.083       .  S
C776        C777   1.399       .  A
C776        H781   1.083       .  S
C777        C778   1.415       .  A
C778        H782   1.083       .  S
C783        C784   1.402       .  A
C783        C788   1.404       .  A
C783        H789   1.082       .  S
C784        C785   1.407       .  A
C785        C786   1.387       .  A
C785        H790   1.083       .  S
C786        C787   1.400       .  A
C786        H791   1.083       .  S
C787        C788   1.411       .  A
C788        H792   1.083       .  S
C793        C794   1.400       .  A
C793        C798   1.388       .  A
C793        H799   1.083       .  S
C794        C795   1.411       .  A
C795        C796   1.404       .  A
C795        H800   1.083       .  S
C796        C797   1.402       .  A
C796        H801   1.083       .  S
C797        C798   1.407       .  A
C798        H802   1.083       .  S
C803        C804   1.406       .  A
C803        C808   1.397       .  A
C803        H809   1.083       .  S
C804        C805   1.407       .  A
C805        C806   1.401       .  A
C805        H810   1.083       .  S
C806        C807   1.407       .  A
C806        H811   1.083       .  S
C807        C808   1.406       .  A
C808        H812   1.083       .  S
C813       C1646   1.405       .  A
C813        C818   1.403       .  A
C813        H819   1.083       .  S
C814       C1645   1.405       .  A
C814        C815   1.409       .  A
C815        C816   1.403       .  A
C815        H820   1.083       .  S
C816       C1649   1.405   1_455  A
C816        H821   1.083       .  S
C817       C1648   1.405       .  A
C817        C818   1.410       .  A
C818        H822   1.083       .  S
C823        C824   1.406   1_655  A
C823       C1660   1.392       .  A
C823        H829   1.083       .  S
C824        C825   1.402       .  A
C825       C1658   1.391       .  A
C825        H830   1.083       .  S
C826       C1657   1.391       .  A
C826        C827   1.405       .  A
C826        H831   1.084       .  S
C827        C828   1.402       .  A
C828       C1655   1.392       .  A
C828        H832   1.083       .  S
O833       Cr851   1.974       .  S
O833        C841   1.257       .  A
O834       Cr851   2.050       .  S
O834        C835   1.276       .  A
C835        O836   1.252       .  A
C835       C1200   1.474       .  S
O836       Cr852   1.931       .  S
O837       Cr852   2.023       .  S
O837        C838   1.267       .  A
C838        O839   1.250       .  A
C838       C1240   1.464       .  S
O839       Cr853   1.950       .  S
O840       Cr853   2.022       .  S
O840        C841   1.268       .  A
C841       C1230   1.490       .  S
O842       Cr851   2.056       .  S
O842        C850   1.280       .  A
O843       Cr851   1.970       .  S
O843        C844   1.261       .  A
C844        O845   1.270       .  A
C844       C1220   1.484       .  S
O845       Cr852   2.023       .  S
O846       Cr852   1.962       .  S
O846        C847   1.259       .  A
C847        O848   1.273       .  A
C847       C1210   1.476       .  S
O848       Cr853   2.023       .  S
O849       Cr853   1.938       .  S
O849        C850   1.252       .  A
C850       C1190   1.485       .  S
Cr851       O854   1.765       .  S
Cr852       O854   1.763       .  S
Cr853       O854   1.755       .  S
O855       Cr873   1.973       .  S
O855        C863   1.257       .  A
O856       Cr873   2.052       .  S
O856        C857   1.276       .  A
C857        O858   1.252       .  A
C857       C1160   1.472       .  S
O858       Cr874   1.931       .  S
O859       Cr874   2.020       .  S
O859        C860   1.266       .  A
C860        O861   1.250       .  A
C860       C1180   1.462       .  S
O861       Cr875   1.950       .  S
O862       Cr875   2.023       .  S
O862        C863   1.268       .  A
C863       C1233   1.492       .  S
O864       Cr873   2.058       .  S
O864        C872   1.281       .  A
O865       Cr873   1.971       .  S
O865        C866   1.260       .  A
C866        O867   1.269       .  A
C866       C1223   1.484       .  S
O867       Cr874   2.021       .  S
O868       Cr874   1.959       .  S
O868       C1285   1.259       .  A
C869       O1284   1.259       .  A
C869        O870   1.273       .  A
C869       C1170   1.476   1_556  S
O870      Cr1291   2.025       .  S
O871       Cr875   1.938       .  S
O871        C872   1.252       .  A
C872       C1150   1.487       .  S
Cr873       O876   1.763       .  S
Cr874       O876   1.763       .  S
Cr875      O1286   2.025       .  S
Cr875       O876   1.755       .  S
O877       Cr895   2.057       .  S
O877        C885   1.280       .  A
O878       Cr895   1.969       .  S
O878        C879   1.260       .  A
C879        O880   1.269       .  A
C879       C1130   1.484       .  S
O880       Cr896   2.023       .  S
O881       Cr896   1.961       .  S
O881        C882   1.259       .  A
C882        O883   1.273       .  A
C882       C1163   1.476       .  S
O883       Cr897   2.024       .  S
O884       Cr897   1.937       .  S
O884        C885   1.252       .  A
C885       C1120   1.487       .  S
O886       Cr895   1.972       .  S
O886        C894   1.256       .  A
O887       Cr895   2.050       .  S
O887        C888   1.276       .  A
C888        O889   1.252       .  A
C888       C1173   1.471       .  S
O889       Cr896   1.931       .  S
O890       Cr896   2.023       .  S
O890        C891   1.267       .  A
C891        O892   1.251       .  A
C891       C1243   1.465       .  S
O892       Cr897   1.951       .  S
O893       Cr897   2.022       .  S
O893        C894   1.268       .  A
C894       C1140   1.490       .  S
Cr895       O898   1.764       .  S
Cr896       O898   1.764       .  S
Cr897       O898   1.755       .  S
O899       Cr917   2.059       .  S
O899        C907   1.281       .  A
O900       Cr917   1.971       .  S
O900        C901   1.261       .  A
C901        O902   1.269       .  A
C901       C1133   1.483       .  S
O902       Cr918   2.019       .  S
O903       Cr918   1.961       .  S
O903       C1320   1.259   1_554  A
C904       O1319   1.259       .  A
C904        O905   1.273       .  A
C904       C1203   1.475       .  S
O905      Cr1335   2.022       .  S
O906       Cr919   1.938       .  S
O906        C907   1.253       .  A
C907       C1110   1.488       .  S
O908       Cr917   1.973       .  S
O908        C916   1.257       .  A
O909       Cr917   2.053       .  S
O909        C910   1.276       .  A
C910        O911   1.252       .  A
C910       C1213   1.474       .  S
O911       Cr918   1.931       .  S
O912       Cr918   2.019       .  S
O912        C913   1.265       .  A
C913        O914   1.250       .  A
C913       C1183   1.462       .  S
O914       Cr919   1.950       .  S
O915       Cr919   2.019       .  S
O915        C916   1.267       .  A
C916       C1143   1.489       .  S
Cr917       O920   1.765       .  S
Cr918       O920   1.764       .  S
Cr919      O1321   2.022   1_554  S
Cr919       O920   1.755       .  S
O921       Cr939   2.060       .  S
O921        C929   1.281       .  A
O922       Cr939   1.971       .  S
O922        C923   1.261       .  A
C923        O924   1.270       .  A
C923       C1100   1.484       .  S
O924       Cr940   2.022       .  S
O925       Cr940   1.962       .  S
O925       C1342   1.259   1_554  A
C926       O1341   1.259       .  A
C926        O927   1.273       .  A
C926       C1070   1.478       .  S
O927      Cr1357   2.025       .  S
O928       Cr941   1.938       .  S
O928        C929   1.253       .  A
C929       C1153   1.488       .  S
O930       Cr939   1.973       .  S
O930        C938   1.257       .  A
O931       Cr939   2.054       .  S
O931        C932   1.276       .  A
C932        O933   1.251       .  A
C932       C1080   1.476       .  S
O933       Cr940   1.930       .  S
O934       Cr940   2.021       .  S
O934        C935   1.266       .  A
C935        O936   1.250       .  A
C935       C1060   1.463       .  S
O936       Cr941   1.949       .  S
O937       Cr941   2.022       .  S
O937        C938   1.268       .  A
C938       C1090   1.490       .  S
Cr939       O942   1.765       .  S
Cr940       O942   1.764       .  S
Cr941      O1343   2.025   1_554  S
Cr941       O942   1.756       .  S
O943       Cr961   2.057       .  S
O943        C951   1.280       .  A
O944       Cr961   1.972       .  S
O944        C945   1.260       .  A
C945        O946   1.269       .  A
C945       C1103   1.485       .  S
O946       Cr962   2.024       .  S
O947       Cr962   1.961       .  S
O947        C948   1.259       .  A
C948        O949   1.273       .  A
C948       C1040   1.476       .  S
O949       Cr963   2.025       .  S
O950       Cr963   1.937       .  S
O950        C951   1.252       .  A
C951       C1193   1.486       .  S
O952       Cr961   1.973       .  S
O952        C960   1.257       .  A
O953       Cr961   2.051       .  S
O953        C954   1.276       .  A
C954        O955   1.252       .  A
C954       C1053   1.472       .  S
O955       Cr962   1.935       .  S
O956       Cr962   2.022       .  S
O956        C957   1.267       .  A
C957        O958   1.250       .  A
C957       C1030   1.464       .  S
O958       Cr963   1.950       .  S
O959       Cr963   2.023       .  S
O959        C960   1.269       .  A
C960       C1093   1.491       .  S
Cr961       O964   1.763       .  S
Cr962       O964   1.763       .  S
Cr963       O964   1.755       .  S
O965       Cr983   1.974       .  S
O965        C973   1.257       .  A
O966       Cr983   2.052       .  S
O966        C967   1.277       .  A
C967        O968   1.252       .  A
C967       C1043   1.472       .  S
O968       Cr984   1.931       .  S
O969       Cr984   2.021       .  S
O969        C970   1.266       .  A
C970        O971   1.250       .  A
C970       C1063   1.463       .  S
O971       Cr985   1.951       .  S
O972       Cr985   2.022       .  S
O972        C973   1.268       .  A
C973       C1010   1.491       .  S
O974       Cr983   2.059       .  S
O974        C982   1.281       .  A
O975       Cr983   1.972       .  S
O975        C976   1.260       .  A
C976        O977   1.269       .  A
C976       C1023   1.485       .  S
O977       Cr984   2.023       .  S
O978       Cr984   1.962       .  S
O978       C1395   1.259       .  A
C979       O1394   1.259       .  A
C979        O980   1.274       .  A
C979       C1050   1.478   1_556  S
O980      Cr1401   2.027       .  S
O981       Cr985   1.936       .  S
O981        C982   1.253       .  A
C982       C1113   1.488       .  S
Cr983       O986   1.764       .  S
Cr984       O986   1.764       .  S
Cr985      O1396   2.027       .  S
Cr985       O986   1.755       .  S
O987      Cr1005   1.972       .  S
O987        C995   1.257       .  A
O988      Cr1005   2.052       .  S
O988        C989   1.276       .  A
C989        O990   1.252       .  A
C989       C1073   1.474       .  S
O990      Cr1006   1.932       .  S
O991      Cr1006   2.021       .  S
O991        C992   1.266       .  A
C992        O993   1.250       .  A
C992       C1033   1.464       .  S
O993      Cr1007   1.950       .  S
O994      Cr1007   2.021       .  S
O994        C995   1.268       .  A
C995       C1013   1.489       .  S
O996      Cr1005   2.058       .  S
O996       C1004   1.281       .  A
O997      Cr1005   1.971       .  S
O997        C998   1.261       .  A
C998        O999   1.270       .  A
C998       C1020   1.485       .  S
O999      Cr1006   2.022       .  S
O1000     Cr1006   1.962       .  S
O1000      C1001   1.259       .  A
C1001      O1002   1.273       .  A
C1001      C1083   1.477       .  S
O1002     Cr1007   2.023       .  S
O1003     Cr1007   1.938       .  S
O1003      C1004   1.253       .  A
C1004      C1123   1.487       .  S
Cr1005     O1008   1.766       .  S
Cr1006     O1008   1.764       .  S
Cr1007     O1008   1.756       .  S
C1009      C1010   1.410       .  A
C1009      C1014   1.403       .  A
C1009      H1015   1.083       .  S
C1010      C1011   1.405       .  A
C1011      C1012   1.402       .  A
C1011      H1016   1.083       .  S
C1012      C1013   1.409       .  A
C1012      H1017   1.083       .  S
C1013      C1014   1.405       .  A
C1014      H1018   1.083       .  S
C1019      C1020   1.406       .  A
C1019      H1025   1.083       .  S
C1020      C1021   1.406       .  A
C1021      H1026   1.083       .  S
C1022      C1023   1.406       .  A
C1022      H1027   1.083       .  S
C1023      C1024   1.407       .  A
C1024      H1028   1.083       .  S
C1029      C1030   1.406       .  A
C1029      C1034   1.392       .  A
C1029      H1035   1.083       .  S
C1030      C1031   1.402   1_565  A
C1031      C1032   1.391       .  A
C1031      H1036   1.084       .  S
C1032      C1033   1.405       .  A
C1032      H1037   1.084       .  S
C1033      C1034   1.402   1_545  A
C1034      H1038   1.083       .  S
C1039      C1040   1.401       .  A
C1039      C1044   1.389       .  A
C1039      H1045   1.083       .  S
C1040      C1041   1.411       .  A
C1041      C1042   1.403   1_565  A
C1041      H1046   1.083   1_565  S
C1042      C1043   1.401       .  A
C1042      H1047   1.083       .  S
C1043      C1044   1.407   1_545  A
C1044      H1048   1.084       .  S
C1049      C1050   1.402       .  A
C1049      C1054   1.390   1_545  A
C1049      H1055   1.083       .  S
C1050      C1051   1.411       .  A
C1051      C1052   1.403   1_545  A
C1051      H1472   1.083       .  S
C1052      C1053   1.401       .  A
C1052      H1057   1.083       .  S
C1053      C1054   1.406       .  A
C1054      H1058   1.083       .  S
H1056      C1467   1.083       .  S
C1059      C1476   1.402   1_545  A
C1059      C1064   1.391       .  A
C1059      H1065   1.084       .  S
C1060      C1475   1.402   1_564  A
C1060      C1061   1.405       .  A
C1061      C1062   1.391   1_554  A
C1061      H1066   1.084       .  S
C1062      C1479   1.402   1_565  A
C1062      H1067   1.083       .  S
C1063      C1478   1.402   1_545  A
C1063      C1064   1.405       .  A
C1064      H1068   1.084       .  S
C1069      C1070   1.411   1_545  A
C1069      C1074   1.404       .  A
C1069      H1075   1.083       .  S
C1070      C1071   1.400       .  A
C1071      C1072   1.389       .  A
C1071      H1076   1.083       .  S
C1072      C1073   1.407   1_565  A
C1072      H1077   1.083       .  S
C1073      C1074   1.402       .  A
C1074      H1078   1.083       .  S
C1079      C1080   1.402       .  A
C1079      C1084   1.405       .  A
C1079      H1085   1.083       .  S
C1080      C1081   1.408   1_565  A
C1081      C1082   1.388       .  A
C1081      H1086   1.083       .  S
C1082      C1083   1.400       .  A
C1082      H1087   1.083       .  S
C1083      C1084   1.411   1_545  A
C1084      H1088   1.083       .  S
C1089      C1090   1.405       .  A
C1089      C1094   1.403       .  A
C1089      H1095   1.083       .  S
C1090      C1091   1.410       .  A
C1091      C1092   1.403       .  A
C1091      H1096   1.083       .  S
C1092      C1093   1.405       .  A
C1092      H1097   1.083       .  S
C1093      C1094   1.410       .  A
C1094      H1098   1.083       .  S
C1099      C1100   1.406       .  A
C1099      H1105   1.083       .  S
C1100      C1101   1.406       .  A
C1101      H1106   1.083       .  S
C1102      C1103   1.407       .  A
C1102      H1107   1.083       .  S
C1103      C1104   1.406       .  A
C1104      H1108   1.083       .  S
C1109      C1110   1.398       .  A
C1109      C1114   1.400       .  A
C1109      H1115   1.083       .  S
C1110      C1527   1.416   1_554  A
C1111      C1526   1.416       .  A
C1111      C1112   1.401       .  A
C1111      H1116   1.083       .  S
C1112      C1113   1.399       .  A
C1112      H1117   1.083       .  S
C1113      C1530   1.416       .  A
C1114      C1529   1.416   1_554  A
C1114      H1118   1.083       .  S
C1119      C1120   1.415       .  A
C1119      C1124   1.400       .  A
C1119      H1125   1.083       .  S
C1120      C1121   1.399       .  A
C1121      C1122   1.400       .  A
C1121      H1126   1.083       .  S
C1122      C1123   1.415       .  A
C1122      H1127   1.083       .  S
C1123      C1124   1.399       .  A
C1124      H1128   1.083       .  S
C1129      C1130   1.406       .  A
C1129      C1134   1.397       .  A
C1129      H1135   1.083       .  S
C1130      C1131   1.406       .  A
C1131      C1132   1.401       .  A
C1131      H1136   1.083       .  S
C1132      C1133   1.407       .  A
C1132      H1137   1.083       .  S
C1133      C1134   1.405       .  A
C1134      H1138   1.083       .  S
C1139      C1140   1.410       .  A
C1139      C1144   1.402   1_655  A
C1139      H1145   1.083       .  S
C1141      C1142   1.402       .  A
C1141      H1146   1.083       .  S
C1142      C1143   1.409       .  A
C1142      H1147   1.083       .  S
C1144      H1148   1.083   1_455  S
C1149      C1150   1.399       .  A
C1149      C1154   1.400       .  A
C1149      H1155   1.083       .  S
C1150      C1151   1.415       .  A
C1151      C1568   1.400       .  A
C1151      H1572   1.083       .  S
C1152      C1567   1.400       .  A
C1152      C1153   1.399       .  A
C1152      H1157   1.083       .  S
C1153      C1570   1.415   1_554  A
C1154      C1569   1.415       .  A
C1154      H1158   1.083       .  S
H1156      C1567   1.083       .  S
C1159      C1160   1.401       .  A
C1159      C1164   1.403       .  A
C1159      H1165   1.083       .  S
C1160      C1161   1.406       .  A
C1161      C1162   1.389       .  A
C1161      H1166   1.084       .  S
C1162      C1163   1.401       .  A
C1162      H1167   1.083       .  S
C1163      C1164   1.411       .  A
C1164      H1168   1.083       .  S
C1169      C1170   1.411       .  A
C1169      C1174   1.402       .  A
C1169      H1175   1.083       .  S
C1170      C1171   1.401       .  A
C1171      C1172   1.389       .  A
C1171      H1176   1.083       .  S
C1172      C1173   1.406       .  A
C1172      H1177   1.084       .  S
C1173      C1174   1.401       .  A
C1174      H1178   1.083       .  S
C1179      C1180   1.402       .  A
C1179      H1185   1.083       .  S
C1180      C1181   1.405   1_655  A
C1181      H1186   1.084       .  S
C1182      C1183   1.402   1_556  A
C1182      H1187   1.083       .  S
C1183      C1184   1.404       .  A
C1184      H1188   1.084       .  S
C1189      C1190   1.398       .  A
C1189      C1194   1.399       .  A
C1189      H1195   1.083       .  S
C1190      C1191   1.415       .  A
C1191      C1192   1.400       .  A
C1191      H1196   1.083       .  S
C1192      C1193   1.399       .  A
C1192      H1197   1.083       .  S
C1193      C1194   1.415       .  A
C1194      H1198   1.083       .  S
C1199      C1200   1.402       .  A
C1199      C1204   1.404       .  A
C1199      H1205   1.082       .  S
C1200      C1201   1.407       .  A
C1201      C1202   1.387       .  A
C1201      H1206   1.083       .  S
C1202      C1203   1.400       .  A
C1202      H1207   1.083       .  S
C1203      C1204   1.411       .  A
C1204      H1208   1.083       .  S
C1209      C1210   1.400       .  A
C1209      C1214   1.388       .  A
C1209      H1215   1.083       .  S
C1210      C1211   1.411       .  A
C1211      C1212   1.404       .  A
C1211      H1216   1.083       .  S
C1212      C1213   1.402       .  A
C1212      H1217   1.083       .  S
C1213      C1214   1.407       .  A
C1214      H1218   1.083       .  S
C1219      C1220   1.406       .  A
C1219      C1224   1.397       .  A
C1219      H1225   1.083       .  S
C1220      C1221   1.407       .  A
C1221      C1222   1.401       .  A
C1221      H1226   1.083       .  S
C1222      C1223   1.407       .  A
C1222      H1227   1.083       .  S
C1223      C1224   1.406       .  A
C1224      H1228   1.083       .  S
C1229      C1234   1.403   1_455  A
C1229      H1235   1.083   1_455  S
C1230      C1231   1.409       .  A
C1231      C1232   1.403       .  A
C1231      H1236   1.083       .  S
C1232      H1237   1.083       .  S
C1233      C1234   1.410       .  A
C1234      H1238   1.083       .  S
C1239      C1240   1.406       .  A
C1239      H1245   1.084       .  S
C1240      C1241   1.402       .  A
C1241      H1246   1.084       .  S
C1242      C1243   1.405   1_455  A
C1242      H1247   1.084       .  S
C1243      C1244   1.402       .  A
C1244      H1248   1.083       .  S
O1249     Cr1267   1.974       .  S
O1249      C1257   1.257       .  A
O1250     Cr1267   2.050       .  S
O1250      C1251   1.276       .  A
C1251      O1252   1.252       .  A
C1251      C1616   1.474       .  S
O1252     Cr1268   1.931       .  S
O1253     Cr1268   2.023       .  S
O1253      C1254   1.267       .  A
C1254      O1255   1.250       .  A
C1254      C1656   1.464       .  S
O1255     Cr1269   1.950       .  S
O1256     Cr1269   2.022       .  S
O1256      C1257   1.268       .  A
C1257      C1646   1.490       .  S
O1258     Cr1267   2.056       .  S
O1258      C1266   1.280       .  A
O1259     Cr1267   1.970       .  S
O1259      C1260   1.261       .  A
C1260      O1261   1.270       .  A
C1260      C1636   1.484       .  S
O1261     Cr1268   2.023       .  S
O1262     Cr1268   1.962       .  S
O1262      C1263   1.259       .  A
C1263      O1264   1.273       .  A
C1263      C1626   1.476       .  S
O1264     Cr1269   2.023       .  S
O1265     Cr1269   1.938       .  S
O1265      C1266   1.252       .  A
C1266      C1606   1.485       .  S
Cr1267     O1270   1.765       .  S
Cr1268     O1270   1.763       .  S
Cr1269     O1270   1.755       .  S
O1271     Cr1289   1.973       .  S
O1271      C1279   1.257       .  A
O1272     Cr1289   2.052       .  S
O1272      C1273   1.276       .  A
C1273      O1274   1.252       .  A
C1273      C1576   1.472       .  S
O1274     Cr1290   1.931       .  S
O1275     Cr1290   2.020       .  S
O1275      C1276   1.266       .  A
C1276      O1277   1.250       .  A
C1276      C1596   1.462       .  S
O1277     Cr1291   1.950       .  S
O1278     Cr1291   2.023       .  S
O1278      C1279   1.268       .  A
C1279      C1649   1.492       .  S
O1280     Cr1289   2.058       .  S
O1280      C1288   1.281       .  A
O1281     Cr1289   1.971       .  S
O1281      C1282   1.260       .  A
C1282      O1283   1.269       .  A
C1282      C1639   1.484       .  S
O1283     Cr1290   2.021       .  S
O1284     Cr1290   1.959       .  S
C1285      O1286   1.273       .  A
C1285      C1586   1.476       .  S
O1287     Cr1291   1.938       .  S
O1287      C1288   1.252       .  A
C1288      C1566   1.487       .  S
Cr1289     O1292   1.763       .  S
Cr1290     O1292   1.763       .  S
Cr1291     O1292   1.755       .  S
O1293     Cr1311   2.057       .  S
O1293      C1301   1.280       .  A
O1294     Cr1311   1.969       .  S
O1294      C1295   1.260       .  A
C1295      O1296   1.269       .  A
C1295      C1546   1.484       .  S
O1296     Cr1312   2.023       .  S
O1297     Cr1312   1.961       .  S
O1297      C1298   1.259       .  A
C1298      O1299   1.273       .  A
C1298      C1579   1.476       .  S
O1299     Cr1313   2.024       .  S
O1300     Cr1313   1.937       .  S
O1300      C1301   1.252       .  A
C1301      C1536   1.487       .  S
O1302     Cr1311   1.972       .  S
O1302      C1310   1.256       .  A
O1303     Cr1311   2.050       .  S
O1303      C1304   1.276       .  A
C1304      O1305   1.252       .  A
C1304      C1589   1.471       .  S
O1305     Cr1312   1.931       .  S
O1306     Cr1312   2.023       .  S
O1306      C1307   1.267       .  A
C1307      O1308   1.251       .  A
C1307      C1659   1.465       .  S
O1308     Cr1313   1.951       .  S
O1309     Cr1313   2.022       .  S
O1309      C1310   1.268       .  A
C1310      C1556   1.490       .  S
Cr1311     O1314   1.764       .  S
Cr1312     O1314   1.764       .  S
Cr1313     O1314   1.755       .  S
O1315     Cr1333   2.059       .  S
O1315      C1323   1.281       .  A
O1316     Cr1333   1.971       .  S
O1316      C1317   1.261       .  A
C1317      O1318   1.269       .  A
C1317      C1549   1.483       .  S
O1318     Cr1334   2.019       .  S
O1319     Cr1334   1.961       .  S
C1320      O1321   1.273       .  A
C1320      C1619   1.475       .  S
O1322     Cr1335   1.938       .  S
O1322      C1323   1.253       .  A
C1323      C1526   1.488       .  S
O1324     Cr1333   1.973       .  S
O1324      C1332   1.257       .  A
O1325     Cr1333   2.053       .  S
O1325      C1326   1.276       .  A
C1326      O1327   1.252       .  A
C1326      C1629   1.474       .  S
O1327     Cr1334   1.931       .  S
O1328     Cr1334   2.019       .  S
O1328      C1329   1.265       .  A
C1329      O1330   1.250       .  A
C1329      C1599   1.462       .  S
O1330     Cr1335   1.950       .  S
O1331     Cr1335   2.019       .  S
O1331      C1332   1.267       .  A
C1332      C1559   1.489       .  S
Cr1333     O1336   1.765       .  S
Cr1334     O1336   1.764       .  S
Cr1335     O1336   1.755       .  S
O1337     Cr1355   2.060       .  S
O1337      C1345   1.281       .  A
O1338     Cr1355   1.971       .  S
O1338      C1339   1.261       .  A
C1339      O1340   1.270       .  A
C1339      C1516   1.484       .  S
O1340     Cr1356   2.022       .  S
O1341     Cr1356   1.962       .  S
C1342      O1343   1.273       .  A
C1342      C1486   1.478       .  S
O1344     Cr1357   1.938       .  S
O1344      C1345   1.253       .  A
C1345      C1569   1.488       .  S
O1346     Cr1355   1.973       .  S
O1346      C1354   1.257       .  A
O1347     Cr1355   2.054       .  S
O1347      C1348   1.276       .  A
C1348      O1349   1.251       .  A
C1348      C1496   1.476       .  S
O1349     Cr1356   1.930       .  S
O1350     Cr1356   2.021       .  S
O1350      C1351   1.266       .  A
C1351      O1352   1.250       .  A
C1351      C1476   1.463       .  S
O1352     Cr1357   1.949       .  S
O1353     Cr1357   2.022       .  S
O1353      C1354   1.268       .  A
C1354      C1506   1.490       .  S
Cr1355     O1358   1.765       .  S
Cr1356     O1358   1.764       .  S
Cr1357     O1358   1.756       .  S
O1359     Cr1377   2.057       .  S
O1359      C1367   1.280       .  A
O1360     Cr1377   1.972       .  S
O1360      C1361   1.260       .  A
C1361      O1362   1.269       .  A
C1361      C1519   1.485       .  S
O1362     Cr1378   2.024       .  S
O1363     Cr1378   1.961       .  S
O1363      C1364   1.259       .  A
C1364      O1365   1.273       .  A
C1364      C1456   1.476       .  S
O1365     Cr1379   2.025       .  S
O1366     Cr1379   1.937       .  S
O1366      C1367   1.252       .  A
C1367      C1609   1.486       .  S
O1368     Cr1377   1.973       .  S
O1368      C1376   1.257       .  A
O1369     Cr1377   2.051       .  S
O1369      C1370   1.276       .  A
C1370      O1371   1.252       .  A
C1370      C1469   1.472       .  S
O1371     Cr1378   1.935       .  S
O1372     Cr1378   2.022       .  S
O1372      C1373   1.267       .  A
C1373      O1374   1.250       .  A
C1373      C1446   1.464       .  S
O1374     Cr1379   1.950       .  S
O1375     Cr1379   2.023       .  S
O1375      C1376   1.269       .  A
C1376      C1509   1.491       .  S
Cr1377     O1380   1.763       .  S
Cr1378     O1380   1.763       .  S
Cr1379     O1380   1.755       .  S
O1381     Cr1399   1.974       .  S
O1381      C1389   1.257       .  A
O1382     Cr1399   2.052       .  S
O1382      C1383   1.277       .  A
C1383      O1384   1.252       .  A
C1383      C1459   1.472       .  S
O1384     Cr1400   1.931       .  S
O1385     Cr1400   2.021       .  S
O1385      C1386   1.266       .  A
C1386      O1387   1.250       .  A
C1386      C1479   1.463       .  S
O1387     Cr1401   1.951       .  S
O1388     Cr1401   2.022       .  S
O1388      C1389   1.268       .  A
C1389      C1426   1.491       .  S
O1390     Cr1399   2.059       .  S
O1390      C1398   1.281       .  A
O1391     Cr1399   1.972       .  S
O1391      C1392   1.260       .  A
C1392      O1393   1.269       .  A
C1392      C1439   1.485       .  S
O1393     Cr1400   2.023       .  S
O1394     Cr1400   1.962       .  S
C1395      O1396   1.274       .  A
C1395      C1466   1.478       .  S
O1397     Cr1401   1.936       .  S
O1397      C1398   1.253       .  A
C1398      C1529   1.488       .  S
Cr1399     O1402   1.764       .  S
Cr1400     O1402   1.764       .  S
Cr1401     O1402   1.755       .  S
O1403     Cr1421   1.972       .  S
O1403      C1411   1.257       .  A
O1404     Cr1421   2.052       .  S
O1404      C1405   1.276       .  A
C1405      O1406   1.252       .  A
C1405      C1489   1.474       .  S
O1406     Cr1422   1.932       .  S
O1407     Cr1422   2.021       .  S
O1407      C1408   1.266       .  A
C1408      O1409   1.250       .  A
C1408      C1449   1.464       .  S
O1409     Cr1423   1.950       .  S
O1410     Cr1423   2.021       .  S
O1410      C1411   1.268       .  A
C1411      C1429   1.489       .  S
O1412     Cr1421   2.058       .  S
O1412      C1420   1.281       .  A
O1413     Cr1421   1.971       .  S
O1413      C1414   1.261       .  A
C1414      O1415   1.270       .  A
C1414      C1436   1.485       .  S
O1415     Cr1422   2.022       .  S
O1416     Cr1422   1.962       .  S
O1416      C1417   1.259       .  A
C1417      O1418   1.273       .  A
C1417      C1499   1.477       .  S
O1418     Cr1423   2.023       .  S
O1419     Cr1423   1.938       .  S
O1419      C1420   1.253       .  A
C1420      C1539   1.487       .  S
Cr1421     O1424   1.766       .  S
Cr1422     O1424   1.764       .  S
Cr1423     O1424   1.756       .  S
C1425      C1426   1.410       .  A
C1425      C1430   1.403       .  A
C1425      H1431   1.083       .  S
C1426      C1427   1.405       .  A
C1427      C1428   1.402       .  A
C1427      H1432   1.083       .  S
C1428      C1429   1.409       .  A
C1428      H1433   1.083       .  S
C1429      C1430   1.405       .  A
C1430      H1434   1.083       .  S
C1435      C1436   1.406       .  A
C1435      H1441   1.083       .  S
C1436      C1437   1.406       .  A
C1437      H1442   1.083       .  S
C1438      C1439   1.406       .  A
C1438      H1443   1.083       .  S
C1439      C1440   1.407       .  A
C1440      H1444   1.083       .  S
C1445      C1446   1.406       .  A
C1445      C1450   1.392       .  A
C1445      H1451   1.084       .  S
C1446      C1447   1.402   1_565  A
C1447      C1448   1.391       .  A
C1447      H1452   1.083       .  S
C1448      C1449   1.405       .  A
C1448      H1453   1.084       .  S
C1449      C1450   1.402   1_545  A
C1450      H1454   1.083       .  S
C1455      C1456   1.401       .  A
C1455      C1460   1.389       .  A
C1455      H1461   1.083       .  S
C1456      C1457   1.411       .  A
C1457      C1458   1.403   1_565  A
C1457      H1462   1.083   1_565  S
C1458      C1459   1.401       .  A
C1458      H1463   1.083       .  S
C1459      C1460   1.407   1_545  A
C1460      H1464   1.084       .  S
C1465      C1466   1.402       .  A
C1465      C1470   1.390   1_545  A
C1465      H1471   1.083       .  S
C1466      C1467   1.411       .  A
C1467      C1468   1.403   1_545  A
C1468      C1469   1.401       .  A
C1468      H1473   1.083       .  S
C1469      C1470   1.406       .  A
C1470      H1474   1.084       .  S
C1475      C1480   1.391       .  A
C1475      H1481   1.083       .  S
C1476      C1477   1.405       .  A
C1477      C1478   1.391       .  A
C1477      H1482   1.084       .  S
C1478      H1483   1.083       .  S
C1479      C1480   1.405       .  A
C1480      H1484   1.083       .  S
C1485      C1486   1.411   1_545  A
C1485      C1490   1.404       .  A
C1485      H1491   1.083       .  S
C1486      C1487   1.401       .  A
C1487      C1488   1.389       .  A
C1487      H1492   1.083       .  S
C1488      C1489   1.407   1_565  A
C1488      H1493   1.084       .  S
C1489      C1490   1.402       .  A
C1490      H1494   1.083       .  S
C1495      C1496   1.402       .  A
C1495      C1500   1.405       .  A
C1495      H1501   1.082       .  S
C1496      C1497   1.408   1_565  A
C1497      C1498   1.388       .  A
C1497      H1502   1.083       .  S
C1498      C1499   1.400       .  A
C1498      H1503   1.083       .  S
C1499      C1500   1.411   1_545  A
C1500      H1504   1.083       .  S
C1505      C1506   1.405       .  A
C1505      C1510   1.403       .  A
C1505      H1511   1.083       .  S
C1506      C1507   1.410       .  A
C1507      C1508   1.403       .  A
C1507      H1512   1.083       .  S
C1508      C1509   1.405       .  A
C1508      H1513   1.083       .  S
C1509      C1510   1.410       .  A
C1510      H1514   1.083       .  S
C1515      C1516   1.406       .  A
C1515      H1521   1.083       .  S
C1516      C1517   1.406       .  A
C1517      H1522   1.083       .  S
C1518      C1519   1.407       .  A
C1518      H1523   1.083       .  S
C1519      C1520   1.406       .  A
C1520      H1524   1.083       .  S
C1525      C1526   1.398       .  A
C1525      C1530   1.400       .  A
C1525      H1531   1.083       .  S
C1527      C1528   1.401       .  A
C1527      H1532   1.083       .  S
C1528      C1529   1.399       .  A
C1528      H1533   1.083       .  S
C1530      H1534   1.083       .  S
C1535      C1536   1.415       .  A
C1535      C1540   1.400       .  A
C1535      H1541   1.083       .  S
C1536      C1537   1.399       .  A
C1537      C1538   1.400       .  A
C1537      H1542   1.083       .  S
C1538      C1539   1.415       .  A
C1538      H1543   1.083       .  S
C1539      C1540   1.399       .  A
C1540      H1544   1.083       .  S
C1545      C1546   1.406       .  A
C1545      C1550   1.397       .  A
C1545      H1551   1.083       .  S
C1546      C1547   1.406       .  A
C1547      C1548   1.401       .  A
C1547      H1552   1.083       .  S
C1548      C1549   1.407       .  A
C1548      H1553   1.083       .  S
C1549      C1550   1.405       .  A
C1550      H1554   1.083       .  S
C1555      C1556   1.410       .  A
C1555      C1560   1.402   1_655  A
C1555      H1561   1.083       .  S
C1557      C1558   1.402       .  A
C1557      H1562   1.083       .  S
C1558      C1559   1.409       .  A
C1558      H1563   1.083       .  S
C1560      H1564   1.083   1_455  S
C1565      C1566   1.399       .  A
C1565      C1570   1.400       .  A
C1565      H1571   1.083       .  S
C1566      C1567   1.415   1_556  A
C1568      C1569   1.399       .  A
C1568      H1573   1.083       .  S
C1570      H1574   1.083       .  S
C1575      C1576   1.401       .  A
C1575      C1580   1.403       .  A
C1575      H1581   1.083       .  S
C1576      C1577   1.406       .  A
C1577      C1578   1.389       .  A
C1577      H1582   1.084       .  S
C1578      C1579   1.401       .  A
C1578      H1583   1.083       .  S
C1579      C1580   1.411       .  A
C1580      H1584   1.083       .  S
C1585      C1586   1.411       .  A
C1585      C1590   1.402       .  A
C1585      H1591   1.083       .  S
C1586      C1587   1.401       .  A
C1587      C1588   1.389       .  A
C1587      H1592   1.083       .  S
C1588      C1589   1.406       .  A
C1588      H1593   1.084       .  S
C1589      C1590   1.401       .  A
C1590      H1594   1.083       .  S
C1595      C1596   1.402       .  A
C1595      H1601   1.083       .  S
C1596      C1597   1.405   1_655  A
C1597      H1602   1.083       .  S
C1598      C1599   1.402       .  A
C1598      H1603   1.084       .  S
C1599      C1600   1.405       .  A
C1600      H1604   1.084       .  S
C1605      C1606   1.398       .  A
C1605      C1610   1.399       .  A
C1605      H1611   1.083       .  S
C1606      C1607   1.415       .  A
C1607      C1608   1.400       .  A
C1607      H1612   1.083       .  S
C1608      C1609   1.399       .  A
C1608      H1613   1.083       .  S
C1609      C1610   1.415       .  A
C1610      H1614   1.083       .  S
C1615      C1616   1.402       .  A
C1615      C1620   1.404       .  A
C1615      H1621   1.082       .  S
C1616      C1617   1.407       .  A
C1617      C1618   1.387       .  A
C1617      H1622   1.083       .  S
C1618      C1619   1.400       .  A
C1618      H1623   1.083       .  S
C1619      C1620   1.411       .  A
C1620      H1624   1.083       .  S
C1625      C1626   1.400       .  A
C1625      C1630   1.388       .  A
C1625      H1631   1.083       .  S
C1626      C1627   1.411       .  A
C1627      C1628   1.404       .  A
C1627      H1632   1.083       .  S
C1628      C1629   1.402       .  A
C1628      H1633   1.083       .  S
C1629      C1630   1.407       .  A
C1630      H1634   1.084       .  S
C1635      C1636   1.406       .  A
C1635      C1640   1.397       .  A
C1635      H1641   1.083       .  S
C1636      C1637   1.407       .  A
C1637      C1638   1.401       .  A
C1637      H1642   1.083       .  S
C1638      C1639   1.407       .  A
C1638      H1643   1.083       .  S
C1639      C1640   1.406       .  A
C1640      H1644   1.083       .  S
C1645      C1650   1.403   1_455  A
C1645      H1651   1.083   1_455  S
C1646      C1647   1.409       .  A
C1647      C1648   1.403       .  A
C1647      H1652   1.083       .  S
C1648      H1653   1.083       .  S
C1649      C1650   1.410       .  A
C1650      H1654   1.083       .  S
C1655      C1656   1.406       .  A
C1655      H1661   1.083       .  S
C1656      C1657   1.402       .  A
C1657      H1662   1.084       .  S
C1658      C1659   1.405   1_455  A
C1658      H1663   1.084       .  S
C1659      C1660   1.402       .  A
C1660      H1664   1.083       .  S
